* NGSPICE file created from spell.ext - technology: gf180mcuC

* Black-box entry subcircuit for gf180mcu_fd_sc_mcu7t5v0__fill_2 abstract view
.subckt gf180mcu_fd_sc_mcu7t5v0__fill_2 VDD VSS
.ends

* Black-box entry subcircuit for gf180mcu_fd_sc_mcu7t5v0__fill_1 abstract view
.subckt gf180mcu_fd_sc_mcu7t5v0__fill_1 VDD VSS
.ends

* Black-box entry subcircuit for gf180mcu_fd_sc_mcu7t5v0__oai21_1 abstract view
.subckt gf180mcu_fd_sc_mcu7t5v0__oai21_1 A1 A2 B ZN VDD VSS
.ends

* Black-box entry subcircuit for gf180mcu_fd_sc_mcu7t5v0__nand4_1 abstract view
.subckt gf180mcu_fd_sc_mcu7t5v0__nand4_1 A1 A2 A3 A4 ZN VDD VSS
.ends

* Black-box entry subcircuit for gf180mcu_fd_sc_mcu7t5v0__antenna abstract view
.subckt gf180mcu_fd_sc_mcu7t5v0__antenna I VDD VSS
.ends

* Black-box entry subcircuit for gf180mcu_fd_sc_mcu7t5v0__aoi211_1 abstract view
.subckt gf180mcu_fd_sc_mcu7t5v0__aoi211_1 A1 A2 B C ZN VDD VSS
.ends

* Black-box entry subcircuit for gf180mcu_fd_sc_mcu7t5v0__aoi22_1 abstract view
.subckt gf180mcu_fd_sc_mcu7t5v0__aoi22_1 A1 A2 B1 B2 ZN VDD VSS
.ends

* Black-box entry subcircuit for gf180mcu_fd_sc_mcu7t5v0__fillcap_4 abstract view
.subckt gf180mcu_fd_sc_mcu7t5v0__fillcap_4 VDD VSS
.ends

* Black-box entry subcircuit for gf180mcu_fd_sc_mcu7t5v0__mux2_2 abstract view
.subckt gf180mcu_fd_sc_mcu7t5v0__mux2_2 I0 I1 S Z VDD VSS
.ends

* Black-box entry subcircuit for gf180mcu_fd_sc_mcu7t5v0__clkbuf_1 abstract view
.subckt gf180mcu_fd_sc_mcu7t5v0__clkbuf_1 I Z VDD VSS
.ends

* Black-box entry subcircuit for gf180mcu_fd_sc_mcu7t5v0__aoi21_1 abstract view
.subckt gf180mcu_fd_sc_mcu7t5v0__aoi21_1 A1 A2 B ZN VDD VSS
.ends

* Black-box entry subcircuit for gf180mcu_fd_sc_mcu7t5v0__clkinv_1 abstract view
.subckt gf180mcu_fd_sc_mcu7t5v0__clkinv_1 I ZN VDD VSS
.ends

* Black-box entry subcircuit for gf180mcu_fd_sc_mcu7t5v0__fillcap_64 abstract view
.subckt gf180mcu_fd_sc_mcu7t5v0__fillcap_64 VDD VSS
.ends

* Black-box entry subcircuit for gf180mcu_fd_sc_mcu7t5v0__buf_1 abstract view
.subckt gf180mcu_fd_sc_mcu7t5v0__buf_1 I Z VDD VSS
.ends

* Black-box entry subcircuit for gf180mcu_fd_sc_mcu7t5v0__oai221_1 abstract view
.subckt gf180mcu_fd_sc_mcu7t5v0__oai221_1 A1 A2 B1 B2 C ZN VDD VSS
.ends

* Black-box entry subcircuit for gf180mcu_fd_sc_mcu7t5v0__clkbuf_2 abstract view
.subckt gf180mcu_fd_sc_mcu7t5v0__clkbuf_2 I Z VDD VSS
.ends

* Black-box entry subcircuit for gf180mcu_fd_sc_mcu7t5v0__nor2_1 abstract view
.subckt gf180mcu_fd_sc_mcu7t5v0__nor2_1 A1 A2 ZN VDD VSS
.ends

* Black-box entry subcircuit for gf180mcu_fd_sc_mcu7t5v0__fillcap_32 abstract view
.subckt gf180mcu_fd_sc_mcu7t5v0__fillcap_32 VDD VSS
.ends

* Black-box entry subcircuit for gf180mcu_fd_sc_mcu7t5v0__fillcap_16 abstract view
.subckt gf180mcu_fd_sc_mcu7t5v0__fillcap_16 VDD VSS
.ends

* Black-box entry subcircuit for gf180mcu_fd_sc_mcu7t5v0__filltie abstract view
.subckt gf180mcu_fd_sc_mcu7t5v0__filltie VDD VSS
.ends

* Black-box entry subcircuit for gf180mcu_fd_sc_mcu7t5v0__dffq_1 abstract view
.subckt gf180mcu_fd_sc_mcu7t5v0__dffq_1 D CLK Q VDD VSS
.ends

* Black-box entry subcircuit for gf180mcu_fd_sc_mcu7t5v0__fillcap_8 abstract view
.subckt gf180mcu_fd_sc_mcu7t5v0__fillcap_8 VDD VSS
.ends

* Black-box entry subcircuit for gf180mcu_fd_sc_mcu7t5v0__and2_1 abstract view
.subckt gf180mcu_fd_sc_mcu7t5v0__and2_1 A1 A2 Z VDD VSS
.ends

* Black-box entry subcircuit for gf180mcu_fd_sc_mcu7t5v0__nand3_1 abstract view
.subckt gf180mcu_fd_sc_mcu7t5v0__nand3_1 A1 A2 A3 ZN VDD VSS
.ends

* Black-box entry subcircuit for gf180mcu_fd_sc_mcu7t5v0__oai211_1 abstract view
.subckt gf180mcu_fd_sc_mcu7t5v0__oai211_1 A1 A2 B C ZN VDD VSS
.ends

* Black-box entry subcircuit for gf180mcu_fd_sc_mcu7t5v0__nand2_1 abstract view
.subckt gf180mcu_fd_sc_mcu7t5v0__nand2_1 A1 A2 ZN VDD VSS
.ends

* Black-box entry subcircuit for gf180mcu_fd_sc_mcu7t5v0__oai22_1 abstract view
.subckt gf180mcu_fd_sc_mcu7t5v0__oai22_1 A1 A2 B1 B2 ZN VDD VSS
.ends

* Black-box entry subcircuit for gf180mcu_fd_sc_mcu7t5v0__nand4_2 abstract view
.subckt gf180mcu_fd_sc_mcu7t5v0__nand4_2 A1 A2 A3 A4 ZN VDD VSS
.ends

* Black-box entry subcircuit for gf180mcu_fd_sc_mcu7t5v0__nor4_4 abstract view
.subckt gf180mcu_fd_sc_mcu7t5v0__nor4_4 A1 A2 A3 A4 ZN VDD VSS
.ends

* Black-box entry subcircuit for gf180mcu_fd_sc_mcu7t5v0__nor3_1 abstract view
.subckt gf180mcu_fd_sc_mcu7t5v0__nor3_1 A1 A2 A3 ZN VDD VSS
.ends

* Black-box entry subcircuit for gf180mcu_fd_sc_mcu7t5v0__aoi222_1 abstract view
.subckt gf180mcu_fd_sc_mcu7t5v0__aoi222_1 A1 A2 B1 B2 C1 C2 ZN VDD VSS
.ends

* Black-box entry subcircuit for gf180mcu_fd_sc_mcu7t5v0__clkbuf_3 abstract view
.subckt gf180mcu_fd_sc_mcu7t5v0__clkbuf_3 I Z VDD VSS
.ends

* Black-box entry subcircuit for gf180mcu_fd_sc_mcu7t5v0__nor3_2 abstract view
.subckt gf180mcu_fd_sc_mcu7t5v0__nor3_2 A1 A2 A3 ZN VDD VSS
.ends

* Black-box entry subcircuit for gf180mcu_fd_sc_mcu7t5v0__or4_1 abstract view
.subckt gf180mcu_fd_sc_mcu7t5v0__or4_1 A1 A2 A3 A4 Z VDD VSS
.ends

* Black-box entry subcircuit for gf180mcu_fd_sc_mcu7t5v0__and3_1 abstract view
.subckt gf180mcu_fd_sc_mcu7t5v0__and3_1 A1 A2 A3 Z VDD VSS
.ends

* Black-box entry subcircuit for gf180mcu_fd_sc_mcu7t5v0__clkbuf_16 abstract view
.subckt gf180mcu_fd_sc_mcu7t5v0__clkbuf_16 I Z VDD VSS
.ends

* Black-box entry subcircuit for gf180mcu_fd_sc_mcu7t5v0__xor2_1 abstract view
.subckt gf180mcu_fd_sc_mcu7t5v0__xor2_1 A1 A2 Z VDD VSS
.ends

* Black-box entry subcircuit for gf180mcu_fd_sc_mcu7t5v0__aoi21_2 abstract view
.subckt gf180mcu_fd_sc_mcu7t5v0__aoi21_2 A1 A2 B ZN VDD VSS
.ends

* Black-box entry subcircuit for gf180mcu_fd_sc_mcu7t5v0__aoi221_1 abstract view
.subckt gf180mcu_fd_sc_mcu7t5v0__aoi221_1 A1 A2 B1 B2 C ZN VDD VSS
.ends

* Black-box entry subcircuit for gf180mcu_fd_sc_mcu7t5v0__or2_1 abstract view
.subckt gf180mcu_fd_sc_mcu7t5v0__or2_1 A1 A2 Z VDD VSS
.ends

* Black-box entry subcircuit for gf180mcu_fd_sc_mcu7t5v0__endcap abstract view
.subckt gf180mcu_fd_sc_mcu7t5v0__endcap VDD VSS
.ends

* Black-box entry subcircuit for gf180mcu_fd_sc_mcu7t5v0__and4_1 abstract view
.subckt gf180mcu_fd_sc_mcu7t5v0__and4_1 A1 A2 A3 A4 Z VDD VSS
.ends

* Black-box entry subcircuit for gf180mcu_fd_sc_mcu7t5v0__clkbuf_8 abstract view
.subckt gf180mcu_fd_sc_mcu7t5v0__clkbuf_8 I Z VDD VSS
.ends

* Black-box entry subcircuit for gf180mcu_fd_sc_mcu7t5v0__xnor2_1 abstract view
.subckt gf180mcu_fd_sc_mcu7t5v0__xnor2_1 A1 A2 ZN VDD VSS
.ends

* Black-box entry subcircuit for gf180mcu_fd_sc_mcu7t5v0__nand2_2 abstract view
.subckt gf180mcu_fd_sc_mcu7t5v0__nand2_2 A1 A2 ZN VDD VSS
.ends

* Black-box entry subcircuit for gf180mcu_fd_sc_mcu7t5v0__mux4_1 abstract view
.subckt gf180mcu_fd_sc_mcu7t5v0__mux4_1 I0 I1 I2 I3 S0 S1 Z VDD VSS
.ends

* Black-box entry subcircuit for gf180mcu_fd_sc_mcu7t5v0__buf_2 abstract view
.subckt gf180mcu_fd_sc_mcu7t5v0__buf_2 I Z VDD VSS
.ends

* Black-box entry subcircuit for gf180mcu_fd_sc_mcu7t5v0__buf_3 abstract view
.subckt gf180mcu_fd_sc_mcu7t5v0__buf_3 I Z VDD VSS
.ends

* Black-box entry subcircuit for gf180mcu_fd_sc_mcu7t5v0__oai22_2 abstract view
.subckt gf180mcu_fd_sc_mcu7t5v0__oai22_2 A1 A2 B1 B2 ZN VDD VSS
.ends

* Black-box entry subcircuit for gf180mcu_fd_sc_mcu7t5v0__oai21_2 abstract view
.subckt gf180mcu_fd_sc_mcu7t5v0__oai21_2 A1 A2 B ZN VDD VSS
.ends

* Black-box entry subcircuit for gf180mcu_fd_sc_mcu7t5v0__dlyb_1 abstract view
.subckt gf180mcu_fd_sc_mcu7t5v0__dlyb_1 I Z VDD VSS
.ends

* Black-box entry subcircuit for gf180mcu_fd_sc_mcu7t5v0__nor2_2 abstract view
.subckt gf180mcu_fd_sc_mcu7t5v0__nor2_2 A1 A2 ZN VDD VSS
.ends

* Black-box entry subcircuit for gf180mcu_fd_sc_mcu7t5v0__aoi22_2 abstract view
.subckt gf180mcu_fd_sc_mcu7t5v0__aoi22_2 A1 A2 B1 B2 ZN VDD VSS
.ends

* Black-box entry subcircuit for gf180mcu_fd_sc_mcu7t5v0__aoi211_4 abstract view
.subckt gf180mcu_fd_sc_mcu7t5v0__aoi211_4 A1 A2 B C ZN VDD VSS
.ends

* Black-box entry subcircuit for gf180mcu_fd_sc_mcu7t5v0__or2_2 abstract view
.subckt gf180mcu_fd_sc_mcu7t5v0__or2_2 A1 A2 Z VDD VSS
.ends

* Black-box entry subcircuit for gf180mcu_fd_sc_mcu7t5v0__nor4_1 abstract view
.subckt gf180mcu_fd_sc_mcu7t5v0__nor4_1 A1 A2 A3 A4 ZN VDD VSS
.ends

* Black-box entry subcircuit for gf180mcu_fd_sc_mcu7t5v0__oai31_1 abstract view
.subckt gf180mcu_fd_sc_mcu7t5v0__oai31_1 A1 A2 A3 B ZN VDD VSS
.ends

* Black-box entry subcircuit for gf180mcu_fd_sc_mcu7t5v0__dlyc_1 abstract view
.subckt gf180mcu_fd_sc_mcu7t5v0__dlyc_1 I Z VDD VSS
.ends

* Black-box entry subcircuit for gf180mcu_fd_sc_mcu7t5v0__inv_1 abstract view
.subckt gf180mcu_fd_sc_mcu7t5v0__inv_1 I ZN VDD VSS
.ends

* Black-box entry subcircuit for gf180mcu_fd_sc_mcu7t5v0__clkinv_2 abstract view
.subckt gf180mcu_fd_sc_mcu7t5v0__clkinv_2 I ZN VDD VSS
.ends

* Black-box entry subcircuit for gf180mcu_fd_sc_mcu7t5v0__dffq_2 abstract view
.subckt gf180mcu_fd_sc_mcu7t5v0__dffq_2 D CLK Q VDD VSS
.ends

* Black-box entry subcircuit for gf180mcu_fd_sc_mcu7t5v0__oai211_2 abstract view
.subckt gf180mcu_fd_sc_mcu7t5v0__oai211_2 A1 A2 B C ZN VDD VSS
.ends

* Black-box entry subcircuit for gf180mcu_fd_sc_mcu7t5v0__xor3_1 abstract view
.subckt gf180mcu_fd_sc_mcu7t5v0__xor3_1 A1 A2 A3 Z VDD VSS
.ends

* Black-box entry subcircuit for gf180mcu_fd_sc_mcu7t5v0__dlyd_1 abstract view
.subckt gf180mcu_fd_sc_mcu7t5v0__dlyd_1 I Z VDD VSS
.ends

* Black-box entry subcircuit for gf180mcu_fd_sc_mcu7t5v0__oai32_1 abstract view
.subckt gf180mcu_fd_sc_mcu7t5v0__oai32_1 A1 A2 A3 B1 B2 ZN VDD VSS
.ends

* Black-box entry subcircuit for gf180mcu_fd_sc_mcu7t5v0__or3_1 abstract view
.subckt gf180mcu_fd_sc_mcu7t5v0__or3_1 A1 A2 A3 Z VDD VSS
.ends

* Black-box entry subcircuit for gf180mcu_fd_sc_mcu7t5v0__nand3_2 abstract view
.subckt gf180mcu_fd_sc_mcu7t5v0__nand3_2 A1 A2 A3 ZN VDD VSS
.ends

* Black-box entry subcircuit for gf180mcu_fd_sc_mcu7t5v0__nor4_2 abstract view
.subckt gf180mcu_fd_sc_mcu7t5v0__nor4_2 A1 A2 A3 A4 ZN VDD VSS
.ends

* Black-box entry subcircuit for gf180mcu_fd_sc_mcu7t5v0__tiel abstract view
.subckt gf180mcu_fd_sc_mcu7t5v0__tiel ZN VDD VSS
.ends

* Black-box entry subcircuit for gf180mcu_fd_sc_mcu7t5v0__aoi222_2 abstract view
.subckt gf180mcu_fd_sc_mcu7t5v0__aoi222_2 A1 A2 B1 B2 C1 C2 ZN VDD VSS
.ends

* Black-box entry subcircuit for gf180mcu_fd_sc_mcu7t5v0__or3_2 abstract view
.subckt gf180mcu_fd_sc_mcu7t5v0__or3_2 A1 A2 A3 Z VDD VSS
.ends

* Black-box entry subcircuit for gf180mcu_fd_sc_mcu7t5v0__oai221_4 abstract view
.subckt gf180mcu_fd_sc_mcu7t5v0__oai221_4 A1 A2 B1 B2 C ZN VDD VSS
.ends

* Black-box entry subcircuit for gf180mcu_fd_sc_mcu7t5v0__aoi221_2 abstract view
.subckt gf180mcu_fd_sc_mcu7t5v0__aoi221_2 A1 A2 B1 B2 C ZN VDD VSS
.ends

* Black-box entry subcircuit for gf180mcu_fd_sc_mcu7t5v0__inv_2 abstract view
.subckt gf180mcu_fd_sc_mcu7t5v0__inv_2 I ZN VDD VSS
.ends

* Black-box entry subcircuit for gf180mcu_fd_sc_mcu7t5v0__oai31_2 abstract view
.subckt gf180mcu_fd_sc_mcu7t5v0__oai31_2 A1 A2 A3 B ZN VDD VSS
.ends

* Black-box entry subcircuit for gf180mcu_fd_sc_mcu7t5v0__xnor3_1 abstract view
.subckt gf180mcu_fd_sc_mcu7t5v0__xnor3_1 A1 A2 A3 ZN VDD VSS
.ends

* Black-box entry subcircuit for gf180mcu_fd_sc_mcu7t5v0__aoi211_2 abstract view
.subckt gf180mcu_fd_sc_mcu7t5v0__aoi211_2 A1 A2 B C ZN VDD VSS
.ends

* Black-box entry subcircuit for gf180mcu_fd_sc_mcu7t5v0__oai32_2 abstract view
.subckt gf180mcu_fd_sc_mcu7t5v0__oai32_2 A1 A2 A3 B1 B2 ZN VDD VSS
.ends

* Black-box entry subcircuit for gf180mcu_fd_sc_mcu7t5v0__aoi221_4 abstract view
.subckt gf180mcu_fd_sc_mcu7t5v0__aoi221_4 A1 A2 B1 B2 C ZN VDD VSS
.ends

* Black-box entry subcircuit for gf180mcu_fd_sc_mcu7t5v0__nand4_4 abstract view
.subckt gf180mcu_fd_sc_mcu7t5v0__nand4_4 A1 A2 A3 A4 ZN VDD VSS
.ends

* Black-box entry subcircuit for gf180mcu_fd_sc_mcu7t5v0__oai33_1 abstract view
.subckt gf180mcu_fd_sc_mcu7t5v0__oai33_1 A1 A2 A3 B1 B2 B3 ZN VDD VSS
.ends

* Black-box entry subcircuit for gf180mcu_fd_sc_mcu7t5v0__nand2_4 abstract view
.subckt gf180mcu_fd_sc_mcu7t5v0__nand2_4 A1 A2 ZN VDD VSS
.ends

.subckt spell clock i_la_addr[0] i_la_addr[1] i_la_addr[2] i_la_addr[3] i_la_addr[4]
+ i_la_addr[5] i_la_addr[6] i_la_data[0] i_la_data[1] i_la_data[2] i_la_data[3] i_la_data[4]
+ i_la_data[5] i_la_data[6] i_la_data[7] i_la_wb_disable i_la_write i_wb_addr[0] i_wb_addr[10]
+ i_wb_addr[11] i_wb_addr[12] i_wb_addr[13] i_wb_addr[14] i_wb_addr[15] i_wb_addr[16]
+ i_wb_addr[17] i_wb_addr[18] i_wb_addr[19] i_wb_addr[1] i_wb_addr[20] i_wb_addr[21]
+ i_wb_addr[22] i_wb_addr[23] i_wb_addr[24] i_wb_addr[25] i_wb_addr[26] i_wb_addr[27]
+ i_wb_addr[28] i_wb_addr[29] i_wb_addr[2] i_wb_addr[30] i_wb_addr[31] i_wb_addr[3]
+ i_wb_addr[4] i_wb_addr[5] i_wb_addr[6] i_wb_addr[7] i_wb_addr[8] i_wb_addr[9] i_wb_cyc
+ i_wb_data[0] i_wb_data[10] i_wb_data[11] i_wb_data[12] i_wb_data[13] i_wb_data[14]
+ i_wb_data[15] i_wb_data[16] i_wb_data[17] i_wb_data[18] i_wb_data[19] i_wb_data[1]
+ i_wb_data[20] i_wb_data[21] i_wb_data[22] i_wb_data[23] i_wb_data[24] i_wb_data[25]
+ i_wb_data[26] i_wb_data[27] i_wb_data[28] i_wb_data[29] i_wb_data[2] i_wb_data[30]
+ i_wb_data[31] i_wb_data[3] i_wb_data[4] i_wb_data[5] i_wb_data[6] i_wb_data[7] i_wb_data[8]
+ i_wb_data[9] i_wb_stb i_wb_we interrupt io_in[0] io_in[1] io_in[2] io_in[3] io_in[4]
+ io_in[5] io_in[6] io_in[7] io_oeb[0] io_oeb[1] io_oeb[2] io_oeb[3] io_oeb[4] io_oeb[5]
+ io_oeb[6] io_oeb[7] io_out[0] io_out[1] io_out[2] io_out[3] io_out[4] io_out[5]
+ io_out[6] io_out[7] la_data_out[0] la_data_out[10] la_data_out[11] la_data_out[12]
+ la_data_out[13] la_data_out[14] la_data_out[15] la_data_out[16] la_data_out[17]
+ la_data_out[18] la_data_out[19] la_data_out[1] la_data_out[20] la_data_out[21] la_data_out[22]
+ la_data_out[23] la_data_out[24] la_data_out[25] la_data_out[26] la_data_out[27]
+ la_data_out[28] la_data_out[29] la_data_out[2] la_data_out[30] la_data_out[31] la_data_out[3]
+ la_data_out[4] la_data_out[5] la_data_out[6] la_data_out[7] la_data_out[8] la_data_out[9]
+ o_wb_ack o_wb_data[0] o_wb_data[10] o_wb_data[11] o_wb_data[12] o_wb_data[13] o_wb_data[14]
+ o_wb_data[15] o_wb_data[16] o_wb_data[17] o_wb_data[18] o_wb_data[19] o_wb_data[1]
+ o_wb_data[20] o_wb_data[21] o_wb_data[22] o_wb_data[23] o_wb_data[24] o_wb_data[25]
+ o_wb_data[26] o_wb_data[27] o_wb_data[28] o_wb_data[29] o_wb_data[2] o_wb_data[30]
+ o_wb_data[31] o_wb_data[3] o_wb_data[4] o_wb_data[5] o_wb_data[6] o_wb_data[7] o_wb_data[8]
+ o_wb_data[9] rambus_wb_ack_i rambus_wb_addr_o[0] rambus_wb_addr_o[1] rambus_wb_addr_o[2]
+ rambus_wb_addr_o[3] rambus_wb_addr_o[4] rambus_wb_addr_o[5] rambus_wb_addr_o[6]
+ rambus_wb_addr_o[7] rambus_wb_addr_o[8] rambus_wb_addr_o[9] rambus_wb_clk_o rambus_wb_cyc_o
+ rambus_wb_dat_i[0] rambus_wb_dat_i[10] rambus_wb_dat_i[11] rambus_wb_dat_i[12] rambus_wb_dat_i[13]
+ rambus_wb_dat_i[14] rambus_wb_dat_i[15] rambus_wb_dat_i[16] rambus_wb_dat_i[17]
+ rambus_wb_dat_i[18] rambus_wb_dat_i[19] rambus_wb_dat_i[1] rambus_wb_dat_i[20] rambus_wb_dat_i[21]
+ rambus_wb_dat_i[22] rambus_wb_dat_i[23] rambus_wb_dat_i[24] rambus_wb_dat_i[25]
+ rambus_wb_dat_i[26] rambus_wb_dat_i[27] rambus_wb_dat_i[28] rambus_wb_dat_i[29]
+ rambus_wb_dat_i[2] rambus_wb_dat_i[30] rambus_wb_dat_i[31] rambus_wb_dat_i[3] rambus_wb_dat_i[4]
+ rambus_wb_dat_i[5] rambus_wb_dat_i[6] rambus_wb_dat_i[7] rambus_wb_dat_i[8] rambus_wb_dat_i[9]
+ rambus_wb_dat_o[0] rambus_wb_dat_o[10] rambus_wb_dat_o[11] rambus_wb_dat_o[12] rambus_wb_dat_o[13]
+ rambus_wb_dat_o[14] rambus_wb_dat_o[15] rambus_wb_dat_o[16] rambus_wb_dat_o[17]
+ rambus_wb_dat_o[18] rambus_wb_dat_o[19] rambus_wb_dat_o[1] rambus_wb_dat_o[20] rambus_wb_dat_o[21]
+ rambus_wb_dat_o[22] rambus_wb_dat_o[23] rambus_wb_dat_o[24] rambus_wb_dat_o[25]
+ rambus_wb_dat_o[26] rambus_wb_dat_o[27] rambus_wb_dat_o[28] rambus_wb_dat_o[29]
+ rambus_wb_dat_o[2] rambus_wb_dat_o[30] rambus_wb_dat_o[31] rambus_wb_dat_o[3] rambus_wb_dat_o[4]
+ rambus_wb_dat_o[5] rambus_wb_dat_o[6] rambus_wb_dat_o[7] rambus_wb_dat_o[8] rambus_wb_dat_o[9]
+ rambus_wb_rst_o rambus_wb_sel_o[0] rambus_wb_sel_o[1] rambus_wb_sel_o[2] rambus_wb_sel_o[3]
+ rambus_wb_stb_o rambus_wb_we_o reset vdd vss
XFILLER_67_531 vdd vss gf180mcu_fd_sc_mcu7t5v0__fill_2
XFILLER_95_851 vdd vss gf180mcu_fd_sc_mcu7t5v0__fill_1
X_05903_ _01437_ _01445_ _01446_ _01447_ vdd vss gf180mcu_fd_sc_mcu7t5v0__oai21_1
X_06883_ _02246_ _02335_ _02331_ _02338_ vdd vss gf180mcu_fd_sc_mcu7t5v0__oai21_1
X_09671_ _04591_ _04601_ _04628_ _04630_ _04631_ vdd vss gf180mcu_fd_sc_mcu7t5v0__nand4_1
XANTENNA__07534__A1 _02818_ vdd vss gf180mcu_fd_sc_mcu7t5v0__antenna
XFILLER_55_715 vdd vss gf180mcu_fd_sc_mcu7t5v0__fill_2
XFILLER_82_501 vdd vss gf180mcu_fd_sc_mcu7t5v0__fill_1
XFILLER_27_417 vdd vss gf180mcu_fd_sc_mcu7t5v0__fill_2
XFILLER_82_512 vdd vss gf180mcu_fd_sc_mcu7t5v0__fill_2
XFILLER_27_428 vdd vss gf180mcu_fd_sc_mcu7t5v0__fill_2
X_05834_ _01291_ _01373_ _01377_ _01306_ _01378_ vdd vss gf180mcu_fd_sc_mcu7t5v0__aoi211_1
X_08622_ _03762_ _03742_ _03763_ net148 _03764_ vdd vss gf180mcu_fd_sc_mcu7t5v0__aoi22_1
XFILLER_27_439 vdd vss gf180mcu_fd_sc_mcu7t5v0__fill_2
XFILLER_82_534 vdd vss gf180mcu_fd_sc_mcu7t5v0__fill_1
XFILLER_82_545 vdd vss gf180mcu_fd_sc_mcu7t5v0__fill_2
XFILLER_199_208 vdd vss gf180mcu_fd_sc_mcu7t5v0__fillcap_4
XFILLER_36_951 vdd vss gf180mcu_fd_sc_mcu7t5v0__fillcap_4
XFILLER_54_247 vdd vss gf180mcu_fd_sc_mcu7t5v0__fill_1
XANTENNA__05832__S _01371_ vdd vss gf180mcu_fd_sc_mcu7t5v0__antenna
X_05765_ stack\[24\]\[2\] stack\[25\]\[2\] _00901_ _01309_ vdd vss gf180mcu_fd_sc_mcu7t5v0__mux2_2
X_08553_ _03703_ _03707_ vdd vss gf180mcu_fd_sc_mcu7t5v0__clkbuf_1
XFILLER_51_921 vdd vss gf180mcu_fd_sc_mcu7t5v0__fill_2
X_07504_ _02823_ _02817_ _02825_ _00221_ vdd vss gf180mcu_fd_sc_mcu7t5v0__aoi21_1
X_08484_ _03217_ _03652_ vdd vss gf180mcu_fd_sc_mcu7t5v0__clkbuf_1
XANTENNA_input108_I rambus_wb_dat_i[8] vdd vss gf180mcu_fd_sc_mcu7t5v0__antenna
XFILLER_23_634 vdd vss gf180mcu_fd_sc_mcu7t5v0__fill_2
XFILLER_1_1490 vdd vss gf180mcu_fd_sc_mcu7t5v0__fill_1
X_05696_ _01239_ _01240_ vdd vss gf180mcu_fd_sc_mcu7t5v0__clkinv_1
XFILLER_165_1186 vdd vss gf180mcu_fd_sc_mcu7t5v0__fill_2
X_07435_ _02726_ _02772_ vdd vss gf180mcu_fd_sc_mcu7t5v0__clkbuf_1
XANTENNA__09039__A1 _04040_ vdd vss gf180mcu_fd_sc_mcu7t5v0__antenna
XFILLER_195_425 vdd vss gf180mcu_fd_sc_mcu7t5v0__fill_1
XANTENNA__09039__B2 stack\[9\]\[6\] vdd vss gf180mcu_fd_sc_mcu7t5v0__antenna
XFILLER_51_987 vdd vss gf180mcu_fd_sc_mcu7t5v0__fillcap_4
XFILLER_168_29 vdd vss gf180mcu_fd_sc_mcu7t5v0__fillcap_4
XFILLER_50_475 vdd vss gf180mcu_fd_sc_mcu7t5v0__fill_1
XFILLER_52_1312 vdd vss gf180mcu_fd_sc_mcu7t5v0__fill_1
X_07366_ _02702_ _02718_ vdd vss gf180mcu_fd_sc_mcu7t5v0__clkbuf_1
XFILLER_149_864 vdd vss gf180mcu_fd_sc_mcu7t5v0__fill_2
XFILLER_182_108 vdd vss gf180mcu_fd_sc_mcu7t5v0__fillcap_64
X_06317_ _01856_ _01857_ vdd vss gf180mcu_fd_sc_mcu7t5v0__clkbuf_1
X_09105_ _03731_ _04133_ vdd vss gf180mcu_fd_sc_mcu7t5v0__buf_1
XFILLER_52_1378 vdd vss gf180mcu_fd_sc_mcu7t5v0__fillcap_4
XFILLER_202_1047 vdd vss gf180mcu_fd_sc_mcu7t5v0__fill_1
XFILLER_176_683 vdd vss gf180mcu_fd_sc_mcu7t5v0__fill_2
XFILLER_104_1457 vdd vss gf180mcu_fd_sc_mcu7t5v0__fillcap_64
X_07297_ _02604_ _02664_ _02660_ _02665_ vdd vss gf180mcu_fd_sc_mcu7t5v0__oai21_1
XFILLER_136_525 vdd vss gf180mcu_fd_sc_mcu7t5v0__fillcap_4
XFILLER_178_1525 vdd vss gf180mcu_fd_sc_mcu7t5v0__fill_1
XFILLER_164_845 vdd vss gf180mcu_fd_sc_mcu7t5v0__fill_2
XANTENNA__10417__CLK clknet_leaf_39_clock vdd vss gf180mcu_fd_sc_mcu7t5v0__antenna
XFILLER_87_1419 vdd vss gf180mcu_fd_sc_mcu7t5v0__fill_1
X_09036_ _04013_ _04069_ _04078_ stack\[9\]\[5\] _04081_ vdd vss gf180mcu_fd_sc_mcu7t5v0__aoi22_1
XANTENNA_input73_I io_in[4] vdd vss gf180mcu_fd_sc_mcu7t5v0__antenna
XANTENNA__06462__I _01622_ vdd vss gf180mcu_fd_sc_mcu7t5v0__antenna
X_06248_ _01211_ _01737_ _01778_ _01789_ _01719_ _01790_ vdd vss gf180mcu_fd_sc_mcu7t5v0__oai221_1
XFILLER_164_878 vdd vss gf180mcu_fd_sc_mcu7t5v0__fill_2
XFILLER_124_709 vdd vss gf180mcu_fd_sc_mcu7t5v0__fill_2
XFILLER_164_889 vdd vss gf180mcu_fd_sc_mcu7t5v0__fill_1
XFILLER_102_1170 vdd vss gf180mcu_fd_sc_mcu7t5v0__fill_1
XFILLER_123_208 vdd vss gf180mcu_fd_sc_mcu7t5v0__fillcap_4
XFILLER_11_1064 vdd vss gf180mcu_fd_sc_mcu7t5v0__fill_1
XFILLER_117_783 vdd vss gf180mcu_fd_sc_mcu7t5v0__fill_1
XANTENNA__08014__A2 _03213_ vdd vss gf180mcu_fd_sc_mcu7t5v0__antenna
X_06179_ _01721_ _01722_ vdd vss gf180mcu_fd_sc_mcu7t5v0__clkbuf_2
XFILLER_172_1102 vdd vss gf180mcu_fd_sc_mcu7t5v0__fill_1
XFILLER_172_1113 vdd vss gf180mcu_fd_sc_mcu7t5v0__fill_1
XFILLER_132_742 vdd vss gf180mcu_fd_sc_mcu7t5v0__fill_2
XANTENNA__06025__A1 _01405_ vdd vss gf180mcu_fd_sc_mcu7t5v0__antenna
XFILLER_117_66 vdd vss gf180mcu_fd_sc_mcu7t5v0__fillcap_4
XANTENNA__06025__B2 _01476_ vdd vss gf180mcu_fd_sc_mcu7t5v0__antenna
XFILLER_215_1419 vdd vss gf180mcu_fd_sc_mcu7t5v0__fill_1
XFILLER_78_818 vdd vss gf180mcu_fd_sc_mcu7t5v0__fill_1
XFILLER_89_144 vdd vss gf180mcu_fd_sc_mcu7t5v0__fillcap_64
XANTENNA__10567__CLK clknet_leaf_82_clock vdd vss gf180mcu_fd_sc_mcu7t5v0__antenna
XFILLER_137_1266 vdd vss gf180mcu_fd_sc_mcu7t5v0__fill_2
XFILLER_105_989 vdd vss gf180mcu_fd_sc_mcu7t5v0__fillcap_4
XFILLER_137_1277 vdd vss gf180mcu_fd_sc_mcu7t5v0__fill_1
X_09938_ _04829_ _04837_ _00643_ vdd vss gf180mcu_fd_sc_mcu7t5v0__nor2_1
XFILLER_154_1580 vdd vss gf180mcu_fd_sc_mcu7t5v0__fill_1
XFILLER_58_531 vdd vss gf180mcu_fd_sc_mcu7t5v0__fill_1
XFILLER_133_21 vdd vss gf180mcu_fd_sc_mcu7t5v0__fillcap_32
XFILLER_115_1564 vdd vss gf180mcu_fd_sc_mcu7t5v0__fillcap_16
X_09869_ _04540_ _04785_ _04780_ net49 _04787_ vdd vss gf180mcu_fd_sc_mcu7t5v0__aoi22_1
XFILLER_85_350 vdd vss gf180mcu_fd_sc_mcu7t5v0__fillcap_4
XTAP_3202 vdd vss gf180mcu_fd_sc_mcu7t5v0__filltie
XFILLER_46_715 vdd vss gf180mcu_fd_sc_mcu7t5v0__fill_1
XANTENNA__06328__A2 _01772_ vdd vss gf180mcu_fd_sc_mcu7t5v0__antenna
XTAP_3213 vdd vss gf180mcu_fd_sc_mcu7t5v0__filltie
XANTENNA__08722__B1 _03840_ vdd vss gf180mcu_fd_sc_mcu7t5v0__antenna
XTAP_3224 vdd vss gf180mcu_fd_sc_mcu7t5v0__filltie
XTAP_3235 vdd vss gf180mcu_fd_sc_mcu7t5v0__filltie
XFILLER_98_1548 vdd vss gf180mcu_fd_sc_mcu7t5v0__fill_1
XANTENNA__05536__B1 stack\[9\]\[6\] vdd vss gf180mcu_fd_sc_mcu7t5v0__antenna
XTAP_2501 vdd vss gf180mcu_fd_sc_mcu7t5v0__filltie
XTAP_3246 vdd vss gf180mcu_fd_sc_mcu7t5v0__filltie
XFILLER_218_389 vdd vss gf180mcu_fd_sc_mcu7t5v0__fill_1
XTAP_3257 vdd vss gf180mcu_fd_sc_mcu7t5v0__filltie
XFILLER_73_556 vdd vss gf180mcu_fd_sc_mcu7t5v0__fillcap_4
XTAP_2512 vdd vss gf180mcu_fd_sc_mcu7t5v0__filltie
XTAP_3268 vdd vss gf180mcu_fd_sc_mcu7t5v0__filltie
XTAP_2523 vdd vss gf180mcu_fd_sc_mcu7t5v0__filltie
XTAP_3279 vdd vss gf180mcu_fd_sc_mcu7t5v0__filltie
XFILLER_61_707 vdd vss gf180mcu_fd_sc_mcu7t5v0__fill_2
XFILLER_73_567 vdd vss gf180mcu_fd_sc_mcu7t5v0__fill_1
XTAP_2534 vdd vss gf180mcu_fd_sc_mcu7t5v0__filltie
XTAP_1800 vdd vss gf180mcu_fd_sc_mcu7t5v0__filltie
XFILLER_61_718 vdd vss gf180mcu_fd_sc_mcu7t5v0__fill_1
XTAP_2545 vdd vss gf180mcu_fd_sc_mcu7t5v0__filltie
XFILLER_165_2 vdd vss gf180mcu_fd_sc_mcu7t5v0__fill_1
XTAP_1811 vdd vss gf180mcu_fd_sc_mcu7t5v0__filltie
XFILLER_73_589 vdd vss gf180mcu_fd_sc_mcu7t5v0__fill_2
XTAP_2556 vdd vss gf180mcu_fd_sc_mcu7t5v0__filltie
XTAP_1822 vdd vss gf180mcu_fd_sc_mcu7t5v0__filltie
XFILLER_42_921 vdd vss gf180mcu_fd_sc_mcu7t5v0__fillcap_4
XTAP_2567 vdd vss gf180mcu_fd_sc_mcu7t5v0__filltie
XANTENNA__06637__I _02143_ vdd vss gf180mcu_fd_sc_mcu7t5v0__antenna
XTAP_1833 vdd vss gf180mcu_fd_sc_mcu7t5v0__filltie
XTAP_2578 vdd vss gf180mcu_fd_sc_mcu7t5v0__filltie
XTAP_1844 vdd vss gf180mcu_fd_sc_mcu7t5v0__filltie
XTAP_2589 vdd vss gf180mcu_fd_sc_mcu7t5v0__filltie
XTAP_1855 vdd vss gf180mcu_fd_sc_mcu7t5v0__filltie
XFILLER_144_1215 vdd vss gf180mcu_fd_sc_mcu7t5v0__fill_2
XTAP_1866 vdd vss gf180mcu_fd_sc_mcu7t5v0__filltie
XFILLER_41_442 vdd vss gf180mcu_fd_sc_mcu7t5v0__fillcap_4
XFILLER_201_212 vdd vss gf180mcu_fd_sc_mcu7t5v0__fill_1
X_10713_ _00305_ clknet_leaf_29_clock mem.mem_dff.data_mem\[4\]\[6\] vdd vss gf180mcu_fd_sc_mcu7t5v0__dffq_1
XFILLER_158_105 vdd vss gf180mcu_fd_sc_mcu7t5v0__fill_1
XFILLER_13_144 vdd vss gf180mcu_fd_sc_mcu7t5v0__fillcap_64
XANTENNA__05839__B2 _01285_ vdd vss gf180mcu_fd_sc_mcu7t5v0__antenna
XFILLER_42_976 vdd vss gf180mcu_fd_sc_mcu7t5v0__fillcap_4
XTAP_1877 vdd vss gf180mcu_fd_sc_mcu7t5v0__filltie
XTAP_1888 vdd vss gf180mcu_fd_sc_mcu7t5v0__filltie
XTAP_1899 vdd vss gf180mcu_fd_sc_mcu7t5v0__filltie
XFILLER_41_475 vdd vss gf180mcu_fd_sc_mcu7t5v0__fill_2
XFILLER_9_137 vdd vss gf180mcu_fd_sc_mcu7t5v0__fillcap_4
X_10644_ _00236_ clknet_leaf_119_clock mem.mem_dff.code_mem\[28\]\[1\] vdd vss gf180mcu_fd_sc_mcu7t5v0__dffq_1
XFILLER_167_661 vdd vss gf180mcu_fd_sc_mcu7t5v0__fill_1
XFILLER_195_981 vdd vss gf180mcu_fd_sc_mcu7t5v0__fill_2
X_10575_ _00167_ clknet_leaf_89_clock mem.mem_dff.code_mem\[19\]\[4\] vdd vss gf180mcu_fd_sc_mcu7t5v0__dffq_1
XFILLER_220_1169 vdd vss gf180mcu_fd_sc_mcu7t5v0__fill_2
XANTENNA__06264__A1 _01728_ vdd vss gf180mcu_fd_sc_mcu7t5v0__antenna
XFILLER_182_653 vdd vss gf180mcu_fd_sc_mcu7t5v0__fillcap_8
XFILLER_115_709 vdd vss gf180mcu_fd_sc_mcu7t5v0__fill_1
XANTENNA__05311__I0 stack\[7\]\[1\] vdd vss gf180mcu_fd_sc_mcu7t5v0__antenna
XFILLER_181_141 vdd vss gf180mcu_fd_sc_mcu7t5v0__fill_1
XFILLER_108_750 vdd vss gf180mcu_fd_sc_mcu7t5v0__fillcap_4
XFILLER_142_506 vdd vss gf180mcu_fd_sc_mcu7t5v0__fill_2
XFILLER_5_354 vdd vss gf180mcu_fd_sc_mcu7t5v0__fill_1
XFILLER_142_528 vdd vss gf180mcu_fd_sc_mcu7t5v0__fill_1
XFILLER_177_1079 vdd vss gf180mcu_fd_sc_mcu7t5v0__fill_1
XFILLER_142_539 vdd vss gf180mcu_fd_sc_mcu7t5v0__fill_2
XANTENNA__09202__A1 _04133_ vdd vss gf180mcu_fd_sc_mcu7t5v0__antenna
XANTENNA__08005__A2 _03209_ vdd vss gf180mcu_fd_sc_mcu7t5v0__antenna
XFILLER_135_580 vdd vss gf180mcu_fd_sc_mcu7t5v0__fill_2
XFILLER_190_1213 vdd vss gf180mcu_fd_sc_mcu7t5v0__fillcap_16
XFILLER_9_1419 vdd vss gf180mcu_fd_sc_mcu7t5v0__fill_1
XFILLER_69_829 vdd vss gf180mcu_fd_sc_mcu7t5v0__fillcap_4
XANTENNA__07764__A1 _02968_ vdd vss gf180mcu_fd_sc_mcu7t5v0__antenna
XFILLER_123_786 vdd vss gf180mcu_fd_sc_mcu7t5v0__fill_2
XFILLER_96_626 vdd vss gf180mcu_fd_sc_mcu7t5v0__fill_1
X_11127_ _00719_ clknet_leaf_156_clock stack\[30\]\[3\] vdd vss gf180mcu_fd_sc_mcu7t5v0__dffq_1
XFILLER_68_328 vdd vss gf180mcu_fd_sc_mcu7t5v0__fill_2
XFILLER_96_637 vdd vss gf180mcu_fd_sc_mcu7t5v0__fill_1
XFILLER_96_648 vdd vss gf180mcu_fd_sc_mcu7t5v0__fill_2
XFILLER_27_1060 vdd vss gf180mcu_fd_sc_mcu7t5v0__fillcap_4
XANTENNA_clkbuf_leaf_142_clock_I clknet_4_5_0_clock vdd vss gf180mcu_fd_sc_mcu7t5v0__antenna
XFILLER_42_1525 vdd vss gf180mcu_fd_sc_mcu7t5v0__fill_1
XFILLER_49_531 vdd vss gf180mcu_fd_sc_mcu7t5v0__fill_2
XANTENNA__05716__I _01259_ vdd vss gf180mcu_fd_sc_mcu7t5v0__antenna
XFILLER_49_542 vdd vss gf180mcu_fd_sc_mcu7t5v0__fillcap_4
XFILLER_77_851 vdd vss gf180mcu_fd_sc_mcu7t5v0__fill_1
X_11058_ _00650_ clknet_leaf_22_clock delay_cycles\[16\] vdd vss gf180mcu_fd_sc_mcu7t5v0__dffq_1
XANTENNA__09505__A2 _03570_ vdd vss gf180mcu_fd_sc_mcu7t5v0__antenna
XFILLER_67_70 vdd vss gf180mcu_fd_sc_mcu7t5v0__fill_1
XFILLER_77_862 vdd vss gf180mcu_fd_sc_mcu7t5v0__fill_2
XTAP_5160 vdd vss gf180mcu_fd_sc_mcu7t5v0__filltie
XTAP_5171 vdd vss gf180mcu_fd_sc_mcu7t5v0__filltie
XFILLER_37_715 vdd vss gf180mcu_fd_sc_mcu7t5v0__fillcap_8
XANTENNA__06319__A2 _01642_ vdd vss gf180mcu_fd_sc_mcu7t5v0__antenna
XTAP_5182 vdd vss gf180mcu_fd_sc_mcu7t5v0__filltie
XFILLER_114_1063 vdd vss gf180mcu_fd_sc_mcu7t5v0__fillcap_4
XFILLER_49_575 vdd vss gf180mcu_fd_sc_mcu7t5v0__fill_2
XFILLER_76_361 vdd vss gf180mcu_fd_sc_mcu7t5v0__fillcap_4
XTAP_5193 vdd vss gf180mcu_fd_sc_mcu7t5v0__filltie
X_10009_ _04881_ _04884_ vdd vss gf180mcu_fd_sc_mcu7t5v0__clkbuf_1
XTAP_4470 vdd vss gf180mcu_fd_sc_mcu7t5v0__filltie
XFILLER_114_1096 vdd vss gf180mcu_fd_sc_mcu7t5v0__fillcap_4
XFILLER_37_748 vdd vss gf180mcu_fd_sc_mcu7t5v0__fill_2
XFILLER_64_534 vdd vss gf180mcu_fd_sc_mcu7t5v0__fill_1
XFILLER_92_843 vdd vss gf180mcu_fd_sc_mcu7t5v0__fill_1
XTAP_4481 vdd vss gf180mcu_fd_sc_mcu7t5v0__filltie
XFILLER_64_545 vdd vss gf180mcu_fd_sc_mcu7t5v0__fill_2
XFILLER_92_854 vdd vss gf180mcu_fd_sc_mcu7t5v0__fill_2
XTAP_4492 vdd vss gf180mcu_fd_sc_mcu7t5v0__filltie
XFILLER_149_1126 vdd vss gf180mcu_fd_sc_mcu7t5v0__fillcap_4
XFILLER_36_247 vdd vss gf180mcu_fd_sc_mcu7t5v0__fill_1
XFILLER_184_1017 vdd vss gf180mcu_fd_sc_mcu7t5v0__fill_2
XFILLER_64_567 vdd vss gf180mcu_fd_sc_mcu7t5v0__fill_2
XFILLER_52_718 vdd vss gf180mcu_fd_sc_mcu7t5v0__fill_2
XTAP_3780 vdd vss gf180mcu_fd_sc_mcu7t5v0__filltie
XFILLER_17_450 vdd vss gf180mcu_fd_sc_mcu7t5v0__fillcap_4
XTAP_3791 vdd vss gf180mcu_fd_sc_mcu7t5v0__filltie
XFILLER_17_472 vdd vss gf180mcu_fd_sc_mcu7t5v0__fillcap_4
XFILLER_33_932 vdd vss gf180mcu_fd_sc_mcu7t5v0__fill_2
X_05550_ stack\[7\]\[6\] _01062_ _01098_ _01099_ vdd vss gf180mcu_fd_sc_mcu7t5v0__aoi21_1
XANTENNA__07819__A2 _03018_ vdd vss gf180mcu_fd_sc_mcu7t5v0__antenna
XFILLER_178_904 vdd vss gf180mcu_fd_sc_mcu7t5v0__fillcap_4
XFILLER_162_1315 vdd vss gf180mcu_fd_sc_mcu7t5v0__fill_1
XFILLER_220_521 vdd vss gf180mcu_fd_sc_mcu7t5v0__fillcap_4
XFILLER_71_1209 vdd vss gf180mcu_fd_sc_mcu7t5v0__fillcap_64
XFILLER_177_425 vdd vss gf180mcu_fd_sc_mcu7t5v0__fill_1
X_05481_ _00928_ _01031_ vdd vss gf180mcu_fd_sc_mcu7t5v0__clkbuf_1
XFILLER_32_453 vdd vss gf180mcu_fd_sc_mcu7t5v0__fillcap_4
XANTENNA__08492__A2 _03641_ vdd vss gf180mcu_fd_sc_mcu7t5v0__antenna
X_07220_ _02365_ _02604_ vdd vss gf180mcu_fd_sc_mcu7t5v0__clkbuf_1
XANTENNA__09858__I _04774_ vdd vss gf180mcu_fd_sc_mcu7t5v0__antenna
XFILLER_220_565 vdd vss gf180mcu_fd_sc_mcu7t5v0__fillcap_8
XFILLER_34_1031 vdd vss gf180mcu_fd_sc_mcu7t5v0__fillcap_64
XFILLER_80_2 vdd vss gf180mcu_fd_sc_mcu7t5v0__fill_1
XFILLER_160_1050 vdd vss gf180mcu_fd_sc_mcu7t5v0__fillcap_4
XFILLER_164_108 vdd vss gf180mcu_fd_sc_mcu7t5v0__fillcap_64
X_07151_ _02485_ _02550_ _02546_ _02551_ vdd vss gf180mcu_fd_sc_mcu7t5v0__oai21_1
XFILLER_118_514 vdd vss gf180mcu_fd_sc_mcu7t5v0__fill_2
XANTENNA_clkbuf_leaf_67_clock_I clknet_4_14_0_clock vdd vss gf180mcu_fd_sc_mcu7t5v0__antenna
XFILLER_158_683 vdd vss gf180mcu_fd_sc_mcu7t5v0__fill_2