*SPEF "ieee 1481-1999"
*DESIGN "user_project_wrapper"
*DATE "11:11:11 Fri 11 11, 1111"
*VENDOR "OpenRCX"
*PROGRAM "Parallel Extraction"
*VERSION "1.0"
*DESIGN_FLOW "NAME_SCOPE LOCAL" "PIN_CAP NONE"
*DIVIDER /
*DELIMITER :
*BUS_DELIMITER []
*T_UNIT 1 NS
*C_UNIT 1 PF
*R_UNIT 1 OHM
*L_UNIT 1 HENRY

*NAME_MAP
*1 io_in[0]
*2 io_in[10]
*3 io_in[11]
*4 io_in[12]
*5 io_in[13]
*6 io_in[14]
*7 io_in[15]
*8 io_in[16]
*9 io_in[17]
*10 io_in[18]
*11 io_in[19]
*12 io_in[1]
*13 io_in[20]
*14 io_in[21]
*15 io_in[22]
*16 io_in[23]
*17 io_in[24]
*18 io_in[25]
*19 io_in[26]
*20 io_in[27]
*21 io_in[28]
*22 io_in[29]
*23 io_in[2]
*24 io_in[30]
*25 io_in[31]
*26 io_in[32]
*27 io_in[33]
*28 io_in[34]
*29 io_in[35]
*30 io_in[36]
*31 io_in[37]
*32 io_in[3]
*33 io_in[4]
*34 io_in[5]
*35 io_in[6]
*36 io_in[7]
*37 io_in[8]
*38 io_in[9]
*39 io_oeb[0]
*40 io_oeb[10]
*41 io_oeb[11]
*42 io_oeb[12]
*43 io_oeb[13]
*44 io_oeb[14]
*45 io_oeb[15]
*46 io_oeb[16]
*47 io_oeb[17]
*48 io_oeb[18]
*49 io_oeb[19]
*50 io_oeb[1]
*51 io_oeb[20]
*52 io_oeb[21]
*53 io_oeb[22]
*54 io_oeb[23]
*55 io_oeb[24]
*56 io_oeb[25]
*57 io_oeb[26]
*58 io_oeb[27]
*59 io_oeb[28]
*60 io_oeb[29]
*61 io_oeb[2]
*62 io_oeb[30]
*63 io_oeb[31]
*64 io_oeb[32]
*65 io_oeb[33]
*66 io_oeb[34]
*67 io_oeb[35]
*68 io_oeb[36]
*69 io_oeb[37]
*70 io_oeb[3]
*71 io_oeb[4]
*72 io_oeb[5]
*73 io_oeb[6]
*74 io_oeb[7]
*75 io_oeb[8]
*76 io_oeb[9]
*77 io_out[0]
*78 io_out[10]
*79 io_out[11]
*80 io_out[12]
*81 io_out[13]
*82 io_out[14]
*83 io_out[15]
*84 io_out[16]
*85 io_out[17]
*86 io_out[18]
*87 io_out[19]
*88 io_out[1]
*89 io_out[20]
*90 io_out[21]
*91 io_out[22]
*92 io_out[23]
*93 io_out[24]
*94 io_out[25]
*95 io_out[26]
*96 io_out[27]
*97 io_out[28]
*98 io_out[29]
*99 io_out[2]
*100 io_out[30]
*101 io_out[31]
*102 io_out[32]
*103 io_out[33]
*104 io_out[34]
*105 io_out[35]
*106 io_out[36]
*107 io_out[37]
*108 io_out[3]
*109 io_out[4]
*110 io_out[5]
*111 io_out[6]
*112 io_out[7]
*113 io_out[8]
*114 io_out[9]
*115 la_data_in[0]
*116 la_data_in[10]
*117 la_data_in[11]
*118 la_data_in[12]
*119 la_data_in[13]
*120 la_data_in[14]
*121 la_data_in[15]
*122 la_data_in[16]
*123 la_data_in[17]
*124 la_data_in[18]
*125 la_data_in[19]
*126 la_data_in[1]
*127 la_data_in[20]
*128 la_data_in[21]
*129 la_data_in[22]
*130 la_data_in[23]
*131 la_data_in[24]
*132 la_data_in[25]
*133 la_data_in[26]
*134 la_data_in[27]
*135 la_data_in[28]
*136 la_data_in[29]
*137 la_data_in[2]
*138 la_data_in[30]
*139 la_data_in[31]
*140 la_data_in[32]
*141 la_data_in[33]
*142 la_data_in[34]
*143 la_data_in[35]
*144 la_data_in[36]
*145 la_data_in[37]
*146 la_data_in[38]
*147 la_data_in[39]
*148 la_data_in[3]
*149 la_data_in[40]
*150 la_data_in[41]
*151 la_data_in[42]
*152 la_data_in[43]
*153 la_data_in[44]
*154 la_data_in[45]
*155 la_data_in[46]
*156 la_data_in[47]
*157 la_data_in[48]
*158 la_data_in[49]
*159 la_data_in[4]
*160 la_data_in[50]
*161 la_data_in[51]
*162 la_data_in[52]
*163 la_data_in[53]
*164 la_data_in[54]
*165 la_data_in[55]
*166 la_data_in[56]
*167 la_data_in[57]
*168 la_data_in[58]
*169 la_data_in[59]
*170 la_data_in[5]
*171 la_data_in[60]
*172 la_data_in[61]
*173 la_data_in[62]
*174 la_data_in[63]
*175 la_data_in[6]
*176 la_data_in[7]
*177 la_data_in[8]
*178 la_data_in[9]
*179 la_data_out[0]
*180 la_data_out[10]
*181 la_data_out[11]
*182 la_data_out[12]
*183 la_data_out[13]
*184 la_data_out[14]
*185 la_data_out[15]
*186 la_data_out[16]
*187 la_data_out[17]
*188 la_data_out[18]
*189 la_data_out[19]
*190 la_data_out[1]
*191 la_data_out[20]
*192 la_data_out[21]
*193 la_data_out[22]
*194 la_data_out[23]
*195 la_data_out[24]
*196 la_data_out[25]
*197 la_data_out[26]
*198 la_data_out[27]
*199 la_data_out[28]
*200 la_data_out[29]
*201 la_data_out[2]
*202 la_data_out[30]
*203 la_data_out[31]
*204 la_data_out[32]
*205 la_data_out[33]
*206 la_data_out[34]
*207 la_data_out[35]
*208 la_data_out[36]
*209 la_data_out[37]
*210 la_data_out[38]
*211 la_data_out[39]
*212 la_data_out[3]
*213 la_data_out[40]
*214 la_data_out[41]
*215 la_data_out[42]
*216 la_data_out[43]
*217 la_data_out[44]
*218 la_data_out[45]
*219 la_data_out[46]
*220 la_data_out[47]
*221 la_data_out[48]
*222 la_data_out[49]
*223 la_data_out[4]
*224 la_data_out[50]
*225 la_data_out[51]
*226 la_data_out[52]
*227 la_data_out[53]
*228 la_data_out[54]
*229 la_data_out[55]
*230 la_data_out[56]
*231 la_data_out[57]
*232 la_data_out[58]
*233 la_data_out[59]
*234 la_data_out[5]
*235 la_data_out[60]
*236 la_data_out[61]
*237 la_data_out[62]
*238 la_data_out[63]
*239 la_data_out[6]
*240 la_data_out[7]
*241 la_data_out[8]
*242 la_data_out[9]
*243 la_oenb[0]
*244 la_oenb[10]
*245 la_oenb[11]
*246 la_oenb[12]
*247 la_oenb[13]
*248 la_oenb[14]
*249 la_oenb[15]
*250 la_oenb[16]
*251 la_oenb[17]
*252 la_oenb[18]
*253 la_oenb[19]
*254 la_oenb[1]
*255 la_oenb[20]
*256 la_oenb[21]
*257 la_oenb[22]
*258 la_oenb[23]
*259 la_oenb[24]
*260 la_oenb[25]
*261 la_oenb[26]
*262 la_oenb[27]
*263 la_oenb[28]
*264 la_oenb[29]
*265 la_oenb[2]
*266 la_oenb[30]
*267 la_oenb[31]
*268 la_oenb[32]
*269 la_oenb[33]
*270 la_oenb[34]
*271 la_oenb[35]
*272 la_oenb[36]
*273 la_oenb[37]
*274 la_oenb[38]
*275 la_oenb[39]
*276 la_oenb[3]
*277 la_oenb[40]
*278 la_oenb[41]
*279 la_oenb[42]
*280 la_oenb[43]
*281 la_oenb[44]
*282 la_oenb[45]
*283 la_oenb[46]
*284 la_oenb[47]
*285 la_oenb[48]
*286 la_oenb[49]
*287 la_oenb[4]
*288 la_oenb[50]
*289 la_oenb[51]
*290 la_oenb[52]
*291 la_oenb[53]
*292 la_oenb[54]
*293 la_oenb[55]
*294 la_oenb[56]
*295 la_oenb[57]
*296 la_oenb[58]
*297 la_oenb[59]
*298 la_oenb[5]
*299 la_oenb[60]
*300 la_oenb[61]
*301 la_oenb[62]
*302 la_oenb[63]
*303 la_oenb[6]
*304 la_oenb[7]
*305 la_oenb[8]
*306 la_oenb[9]
*307 user_clock2
*308 user_irq[0]
*309 user_irq[1]
*310 user_irq[2]
*313 wb_clk_i
*314 wb_rst_i
*315 wbs_ack_o
*316 wbs_adr_i[0]
*317 wbs_adr_i[10]
*318 wbs_adr_i[11]
*319 wbs_adr_i[12]
*320 wbs_adr_i[13]
*321 wbs_adr_i[14]
*322 wbs_adr_i[15]
*323 wbs_adr_i[16]
*324 wbs_adr_i[17]
*325 wbs_adr_i[18]
*326 wbs_adr_i[19]
*327 wbs_adr_i[1]
*328 wbs_adr_i[20]
*329 wbs_adr_i[21]
*330 wbs_adr_i[22]
*331 wbs_adr_i[23]
*332 wbs_adr_i[24]
*333 wbs_adr_i[25]
*334 wbs_adr_i[26]
*335 wbs_adr_i[27]
*336 wbs_adr_i[28]
*337 wbs_adr_i[29]
*338 wbs_adr_i[2]
*339 wbs_adr_i[30]
*340 wbs_adr_i[31]
*341 wbs_adr_i[3]
*342 wbs_adr_i[4]
*343 wbs_adr_i[5]
*344 wbs_adr_i[6]
*345 wbs_adr_i[7]
*346 wbs_adr_i[8]
*347 wbs_adr_i[9]
*348 wbs_cyc_i
*349 wbs_dat_i[0]
*350 wbs_dat_i[10]
*351 wbs_dat_i[11]
*352 wbs_dat_i[12]
*353 wbs_dat_i[13]
*354 wbs_dat_i[14]
*355 wbs_dat_i[15]
*356 wbs_dat_i[16]
*357 wbs_dat_i[17]
*358 wbs_dat_i[18]
*359 wbs_dat_i[19]
*360 wbs_dat_i[1]
*361 wbs_dat_i[20]
*362 wbs_dat_i[21]
*363 wbs_dat_i[22]
*364 wbs_dat_i[23]
*365 wbs_dat_i[24]
*366 wbs_dat_i[25]
*367 wbs_dat_i[26]
*368 wbs_dat_i[27]
*369 wbs_dat_i[28]
*370 wbs_dat_i[29]
*371 wbs_dat_i[2]
*372 wbs_dat_i[30]
*373 wbs_dat_i[31]
*374 wbs_dat_i[3]
*375 wbs_dat_i[4]
*376 wbs_dat_i[5]
*377 wbs_dat_i[6]
*378 wbs_dat_i[7]
*379 wbs_dat_i[8]
*380 wbs_dat_i[9]
*381 wbs_dat_o[0]
*382 wbs_dat_o[10]
*383 wbs_dat_o[11]
*384 wbs_dat_o[12]
*385 wbs_dat_o[13]
*386 wbs_dat_o[14]
*387 wbs_dat_o[15]
*388 wbs_dat_o[16]
*389 wbs_dat_o[17]
*390 wbs_dat_o[18]
*391 wbs_dat_o[19]
*392 wbs_dat_o[1]
*393 wbs_dat_o[20]
*394 wbs_dat_o[21]
*395 wbs_dat_o[22]
*396 wbs_dat_o[23]
*397 wbs_dat_o[24]
*398 wbs_dat_o[25]
*399 wbs_dat_o[26]
*400 wbs_dat_o[27]
*401 wbs_dat_o[28]
*402 wbs_dat_o[29]
*403 wbs_dat_o[2]
*404 wbs_dat_o[30]
*405 wbs_dat_o[31]
*406 wbs_dat_o[3]
*407 wbs_dat_o[4]
*408 wbs_dat_o[5]
*409 wbs_dat_o[6]
*410 wbs_dat_o[7]
*411 wbs_dat_o[8]
*412 wbs_dat_o[9]
*413 wbs_sel_i[0]
*414 wbs_sel_i[1]
*415 wbs_sel_i[2]
*416 wbs_sel_i[3]
*417 wbs_stb_i
*418 wbs_we_i
*419 rambus_wb_ack
*420 rambus_wb_addr\[0\]
*421 rambus_wb_addr\[1\]
*422 rambus_wb_addr\[2\]
*423 rambus_wb_addr\[3\]
*424 rambus_wb_addr\[4\]
*425 rambus_wb_addr\[5\]
*426 rambus_wb_addr\[6\]
*427 rambus_wb_addr\[7\]
*428 rambus_wb_addr\[8\]
*429 rambus_wb_addr\[9\]
*430 rambus_wb_clk
*431 rambus_wb_cyc
*432 rambus_wb_dat_i\[0\]
*433 rambus_wb_dat_i\[10\]
*434 rambus_wb_dat_i\[11\]
*435 rambus_wb_dat_i\[12\]
*436 rambus_wb_dat_i\[13\]
*437 rambus_wb_dat_i\[14\]
*438 rambus_wb_dat_i\[15\]
*439 rambus_wb_dat_i\[16\]
*440 rambus_wb_dat_i\[17\]
*441 rambus_wb_dat_i\[18\]
*442 rambus_wb_dat_i\[19\]
*443 rambus_wb_dat_i\[1\]
*444 rambus_wb_dat_i\[20\]
*445 rambus_wb_dat_i\[21\]
*446 rambus_wb_dat_i\[22\]
*447 rambus_wb_dat_i\[23\]
*448 rambus_wb_dat_i\[24\]
*449 rambus_wb_dat_i\[25\]
*450 rambus_wb_dat_i\[26\]
*451 rambus_wb_dat_i\[27\]
*452 rambus_wb_dat_i\[28\]
*453 rambus_wb_dat_i\[29\]
*454 rambus_wb_dat_i\[2\]
*455 rambus_wb_dat_i\[30\]
*456 rambus_wb_dat_i\[31\]
*457 rambus_wb_dat_i\[3\]
*458 rambus_wb_dat_i\[4\]
*459 rambus_wb_dat_i\[5\]
*460 rambus_wb_dat_i\[6\]
*461 rambus_wb_dat_i\[7\]
*462 rambus_wb_dat_i\[8\]
*463 rambus_wb_dat_i\[9\]
*464 rambus_wb_dat_o\[0\]
*465 rambus_wb_dat_o\[10\]
*466 rambus_wb_dat_o\[11\]
*467 rambus_wb_dat_o\[12\]
*468 rambus_wb_dat_o\[13\]
*469 rambus_wb_dat_o\[14\]
*470 rambus_wb_dat_o\[15\]
*471 rambus_wb_dat_o\[16\]
*472 rambus_wb_dat_o\[17\]
*473 rambus_wb_dat_o\[18\]
*474 rambus_wb_dat_o\[19\]
*475 rambus_wb_dat_o\[1\]
*476 rambus_wb_dat_o\[20\]
*477 rambus_wb_dat_o\[21\]
*478 rambus_wb_dat_o\[22\]
*479 rambus_wb_dat_o\[23\]
*480 rambus_wb_dat_o\[24\]
*481 rambus_wb_dat_o\[25\]
*482 rambus_wb_dat_o\[26\]
*483 rambus_wb_dat_o\[27\]
*484 rambus_wb_dat_o\[28\]
*485 rambus_wb_dat_o\[29\]
*486 rambus_wb_dat_o\[2\]
*487 rambus_wb_dat_o\[30\]
*488 rambus_wb_dat_o\[31\]
*489 rambus_wb_dat_o\[3\]
*490 rambus_wb_dat_o\[4\]
*491 rambus_wb_dat_o\[5\]
*492 rambus_wb_dat_o\[6\]
*493 rambus_wb_dat_o\[7\]
*494 rambus_wb_dat_o\[8\]
*495 rambus_wb_dat_o\[9\]
*496 rambus_wb_rst
*497 rambus_wb_sel\[0\]
*498 rambus_wb_sel\[1\]
*499 rambus_wb_sel\[2\]
*500 rambus_wb_sel\[3\]
*501 rambus_wb_stb
*502 rambus_wb_we
*503 rambus0
*504 spell

*PORTS
io_in[0] I
io_in[10] I
io_in[11] I
io_in[12] I
io_in[13] I
io_in[14] I
io_in[15] I
io_in[16] I
io_in[17] I
io_in[18] I
io_in[19] I
io_in[1] I
io_in[20] I
io_in[21] I
io_in[22] I
io_in[23] I
io_in[24] I
io_in[25] I
io_in[26] I
io_in[27] I
io_in[28] I
io_in[29] I
io_in[2] I
io_in[30] I
io_in[31] I
io_in[32] I
io_in[33] I
io_in[34] I
io_in[35] I
io_in[36] I
io_in[37] I
io_in[3] I
io_in[4] I
io_in[5] I
io_in[6] I
io_in[7] I
io_in[8] I
io_in[9] I
io_oeb[0] O
io_oeb[10] O
io_oeb[11] O
io_oeb[12] O
io_oeb[13] O
io_oeb[14] O
io_oeb[15] O
io_oeb[16] O
io_oeb[17] O
io_oeb[18] O
io_oeb[19] O
io_oeb[1] O
io_oeb[20] O
io_oeb[21] O
io_oeb[22] O
io_oeb[23] O
io_oeb[24] O
io_oeb[25] O
io_oeb[26] O
io_oeb[27] O
io_oeb[28] O
io_oeb[29] O
io_oeb[2] O
io_oeb[30] O
io_oeb[31] O
io_oeb[32] O
io_oeb[33] O
io_oeb[34] O
io_oeb[35] O
io_oeb[36] O
io_oeb[37] O
io_oeb[3] O
io_oeb[4] O
io_oeb[5] O
io_oeb[6] O
io_oeb[7] O
io_oeb[8] O
io_oeb[9] O
io_out[0] O
io_out[10] O
io_out[11] O
io_out[12] O
io_out[13] O
io_out[14] O
io_out[15] O
io_out[16] O
io_out[17] O
io_out[18] O
io_out[19] O
io_out[1] O
io_out[20] O
io_out[21] O
io_out[22] O
io_out[23] O
io_out[24] O
io_out[25] O
io_out[26] O
io_out[27] O
io_out[28] O
io_out[29] O
io_out[2] O
io_out[30] O
io_out[31] O
io_out[32] O
io_out[33] O
io_out[34] O
io_out[35] O
io_out[36] O
io_out[37] O
io_out[3] O
io_out[4] O
io_out[5] O
io_out[6] O
io_out[7] O
io_out[8] O
io_out[9] O
la_data_in[0] I
la_data_in[10] I
la_data_in[11] I
la_data_in[12] I
la_data_in[13] I
la_data_in[14] I
la_data_in[15] I
la_data_in[16] I
la_data_in[17] I
la_data_in[18] I
la_data_in[19] I
la_data_in[1] I
la_data_in[20] I
la_data_in[21] I
la_data_in[22] I
la_data_in[23] I
la_data_in[24] I
la_data_in[25] I
la_data_in[26] I
la_data_in[27] I
la_data_in[28] I
la_data_in[29] I
la_data_in[2] I
la_data_in[30] I
la_data_in[31] I
la_data_in[32] I
la_data_in[33] I
la_data_in[34] I
la_data_in[35] I
la_data_in[36] I
la_data_in[37] I
la_data_in[38] I
la_data_in[39] I
la_data_in[3] I
la_data_in[40] I
la_data_in[41] I
la_data_in[42] I
la_data_in[43] I
la_data_in[44] I
la_data_in[45] I
la_data_in[46] I
la_data_in[47] I
la_data_in[48] I
la_data_in[49] I
la_data_in[4] I
la_data_in[50] I
la_data_in[51] I
la_data_in[52] I
la_data_in[53] I
la_data_in[54] I
la_data_in[55] I
la_data_in[56] I
la_data_in[57] I
la_data_in[58] I
la_data_in[59] I
la_data_in[5] I
la_data_in[60] I
la_data_in[61] I
la_data_in[62] I
la_data_in[63] I
la_data_in[6] I
la_data_in[7] I
la_data_in[8] I
la_data_in[9] I
la_data_out[0] O
la_data_out[10] O
la_data_out[11] O
la_data_out[12] O
la_data_out[13] O
la_data_out[14] O
la_data_out[15] O
la_data_out[16] O
la_data_out[17] O
la_data_out[18] O
la_data_out[19] O
la_data_out[1] O
la_data_out[20] O
la_data_out[21] O
la_data_out[22] O
la_data_out[23] O
la_data_out[24] O
la_data_out[25] O
la_data_out[26] O
la_data_out[27] O
la_data_out[28] O
la_data_out[29] O
la_data_out[2] O
la_data_out[30] O
la_data_out[31] O
la_data_out[32] O
la_data_out[33] O
la_data_out[34] O
la_data_out[35] O
la_data_out[36] O
la_data_out[37] O
la_data_out[38] O
la_data_out[39] O
la_data_out[3] O
la_data_out[40] O
la_data_out[41] O
la_data_out[42] O
la_data_out[43] O
la_data_out[44] O
la_data_out[45] O
la_data_out[46] O
la_data_out[47] O
la_data_out[48] O
la_data_out[49] O
la_data_out[4] O
la_data_out[50] O
la_data_out[51] O
la_data_out[52] O
la_data_out[53] O
la_data_out[54] O
la_data_out[55] O
la_data_out[56] O
la_data_out[57] O
la_data_out[58] O
la_data_out[59] O
la_data_out[5] O
la_data_out[60] O
la_data_out[61] O
la_data_out[62] O
la_data_out[63] O
la_data_out[6] O
la_data_out[7] O
la_data_out[8] O
la_data_out[9] O
la_oenb[0] I
la_oenb[10] I
la_oenb[11] I
la_oenb[12] I
la_oenb[13] I
la_oenb[14] I
la_oenb[15] I
la_oenb[16] I
la_oenb[17] I
la_oenb[18] I
la_oenb[19] I
la_oenb[1] I
la_oenb[20] I
la_oenb[21] I
la_oenb[22] I
la_oenb[23] I
la_oenb[24] I
la_oenb[25] I
la_oenb[26] I
la_oenb[27] I
la_oenb[28] I
la_oenb[29] I
la_oenb[2] I
la_oenb[30] I
la_oenb[31] I
la_oenb[32] I
la_oenb[33] I
la_oenb[34] I
la_oenb[35] I
la_oenb[36] I
la_oenb[37] I
la_oenb[38] I
la_oenb[39] I
la_oenb[3] I
la_oenb[40] I
la_oenb[41] I
la_oenb[42] I
la_oenb[43] I
la_oenb[44] I
la_oenb[45] I
la_oenb[46] I
la_oenb[47] I
la_oenb[48] I
la_oenb[49] I
la_oenb[4] I
la_oenb[50] I
la_oenb[51] I
la_oenb[52] I
la_oenb[53] I
la_oenb[54] I
la_oenb[55] I
la_oenb[56] I
la_oenb[57] I
la_oenb[58] I
la_oenb[59] I
la_oenb[5] I
la_oenb[60] I
la_oenb[61] I
la_oenb[62] I
la_oenb[63] I
la_oenb[6] I
la_oenb[7] I
la_oenb[8] I
la_oenb[9] I
user_clock2 I
user_irq[0] O
user_irq[1] O
user_irq[2] O
wb_clk_i I
wb_rst_i I
wbs_ack_o O
wbs_adr_i[0] I
wbs_adr_i[10] I
wbs_adr_i[11] I
wbs_adr_i[12] I
wbs_adr_i[13] I
wbs_adr_i[14] I
wbs_adr_i[15] I
wbs_adr_i[16] I
wbs_adr_i[17] I
wbs_adr_i[18] I
wbs_adr_i[19] I
wbs_adr_i[1] I
wbs_adr_i[20] I
wbs_adr_i[21] I
wbs_adr_i[22] I
wbs_adr_i[23] I
wbs_adr_i[24] I
wbs_adr_i[25] I
wbs_adr_i[26] I
wbs_adr_i[27] I
wbs_adr_i[28] I
wbs_adr_i[29] I
wbs_adr_i[2] I
wbs_adr_i[30] I
wbs_adr_i[31] I
wbs_adr_i[3] I
wbs_adr_i[4] I
wbs_adr_i[5] I
wbs_adr_i[6] I
wbs_adr_i[7] I
wbs_adr_i[8] I
wbs_adr_i[9] I
wbs_cyc_i I
wbs_dat_i[0] I
wbs_dat_i[10] I
wbs_dat_i[11] I
wbs_dat_i[12] I
wbs_dat_i[13] I
wbs_dat_i[14] I
wbs_dat_i[15] I
wbs_dat_i[16] I
wbs_dat_i[17] I
wbs_dat_i[18] I
wbs_dat_i[19] I
wbs_dat_i[1] I
wbs_dat_i[20] I
wbs_dat_i[21] I
wbs_dat_i[22] I
wbs_dat_i[23] I
wbs_dat_i[24] I
wbs_dat_i[25] I
wbs_dat_i[26] I
wbs_dat_i[27] I
wbs_dat_i[28] I
wbs_dat_i[29] I
wbs_dat_i[2] I
wbs_dat_i[30] I
wbs_dat_i[31] I
wbs_dat_i[3] I
wbs_dat_i[4] I
wbs_dat_i[5] I
wbs_dat_i[6] I
wbs_dat_i[7] I
wbs_dat_i[8] I
wbs_dat_i[9] I
wbs_dat_o[0] O
wbs_dat_o[10] O
wbs_dat_o[11] O
wbs_dat_o[12] O
wbs_dat_o[13] O
wbs_dat_o[14] O
wbs_dat_o[15] O
wbs_dat_o[16] O
wbs_dat_o[17] O
wbs_dat_o[18] O
wbs_dat_o[19] O
wbs_dat_o[1] O
wbs_dat_o[20] O
wbs_dat_o[21] O
wbs_dat_o[22] O
wbs_dat_o[23] O
wbs_dat_o[24] O
wbs_dat_o[25] O
wbs_dat_o[26] O
wbs_dat_o[27] O
wbs_dat_o[28] O
wbs_dat_o[29] O
wbs_dat_o[2] O
wbs_dat_o[30] O
wbs_dat_o[31] O
wbs_dat_o[3] O
wbs_dat_o[4] O
wbs_dat_o[5] O
wbs_dat_o[6] O
wbs_dat_o[7] O
wbs_dat_o[8] O
wbs_dat_o[9] O
wbs_sel_i[0] I
wbs_sel_i[1] I
wbs_sel_i[2] I
wbs_sel_i[3] I
wbs_stb_i I
wbs_we_i I

*D_NET *2 0.154631
*CONN
*P io_in[10] I
*I *504:io_in[2] I *D spell
*CAP
1 io_in[10] 0.00543594
2 *504:io_in[2] 0.000673864
3 *2:15 0.0112917
4 *2:14 0.0117961
5 *2:9 0.0437045
6 *2:7 0.0479621
7 *2:15 *4:17 0.0279989
8 *2:15 *186:13 0.000283368
9 *2:15 *417:14 0.000363116
10 *2:15 *426:13 0.00512149
11 *2:15 *444:10 0
*RES
1 io_in[10] *2:7 37.305 
2 *2:7 *2:9 332.64 
3 *2:9 *2:14 17.37 
4 *2:14 *2:15 132.75 
5 *2:15 *504:io_in[2] 17.6361 
*END

*D_NET *3 0.263254
*CONN
*P io_in[11] I
*I *504:io_in[3] I *D spell
*CAP
1 io_in[11] 0.000363112
2 *504:io_in[3] 0.00080507
3 *3:19 0.0148443
4 *3:18 0.0140393
5 *3:16 0.0290314
6 *3:15 0.0290314
7 *3:13 0.0644698
8 *3:11 0.0648329
9 *504:io_in[3] *113:16 0.00118543
10 *504:io_in[3] *318:296 0.000301042
11 *3:19 *113:16 0
12 *3:19 *318:296 0.0173282
13 *3:19 *350:20 0.0041614
14 *3:19 *438:9 0.0194974
15 *3:19 *468:14 0.00336329
*RES
1 io_in[11] *3:11 3.195 
2 *3:11 *3:13 405.27 
3 *3:13 *3:15 4.5 
4 *3:15 *3:16 220.05 
5 *3:16 *3:18 4.5 
6 *3:18 *3:19 198.54 
7 *3:19 *504:io_in[3] 15.21 
*END

*D_NET *4 0.188837
*CONN
*P io_in[12] I
*I *504:io_in[4] I *D spell
*CAP
1 io_in[12] 0.00121591
2 *504:io_in[4] 0.000712822
3 *4:17 0.00211201
4 *4:16 0.00560847
5 *4:11 0.058289
6 *4:10 0.0540797
7 *4:8 0.0137295
8 *4:7 0.0149454
9 *4:11 *464:14 0
10 *4:17 *417:14 0.00471723
11 *4:17 *426:13 0.00542797
12 *2:15 *4:17 0.0279989
*RES
1 io_in[12] *4:7 12.825 
2 *4:7 *4:8 105.21 
3 *4:8 *4:10 4.5 
4 *4:10 *4:11 418.59 
5 *4:11 *4:16 40.41 
6 *4:16 *4:17 70.83 
7 *4:17 *504:io_in[4] 17.8161 
*END

*D_NET *5 0.174106
*CONN
*P io_in[13] I
*I *504:io_in[5] I *D spell
*CAP
1 io_in[13] 0.0576918
2 *504:io_in[5] 0.0010739
3 *5:11 0.00835533
4 *5:10 0.00728143
5 *5:8 0.0131743
6 *5:7 0.0131743
7 *5:5 0.0576918
8 *5:8 *458:10 0
9 *5:11 *81:16 0.0067537
10 *5:11 *185:16 0
11 *5:11 *328:118 0.00553171
12 *5:11 *359:32 0.00337777
*RES
1 io_in[13] *5:5 448.425 
2 *5:5 *5:7 4.5 
3 *5:7 *5:8 98.19 
4 *5:8 *5:10 4.5 
5 *5:10 *5:11 93.33 
6 *5:11 *504:io_in[5] 11.115 
*END

*D_NET *6 0.131539
*CONN
*P io_in[14] I
*I *504:io_in[6] I *D spell
*CAP
1 io_in[14] 0.000264341
2 *504:io_in[6] 0.00175568
3 *6:18 0.00604076
4 *6:13 0.0637497
5 *6:11 0.0597289
*RES
1 io_in[14] *6:11 2.655 
2 *6:11 *6:13 461.97 
3 *6:13 *6:18 41.49 
4 *6:18 *504:io_in[6] 13.995 
*END

*D_NET *7 0.31225
*CONN
*P io_in[15] I
*I *504:io_in[7] I *D spell
*CAP
1 io_in[15] 0.00107384
2 *504:io_in[7] 0.002833
3 *7:8 0.0440085
4 *7:7 0.0422493
5 *7:7 *183:13 0
6 *7:8 *83:16 0.222086
7 *7:8 *128:14 0
8 *7:8 *183:10 0
*RES
1 io_in[15] *7:7 12.645 
2 *7:7 *7:8 591.21 
3 *7:8 *504:io_in[7] 22.275 
*END

*D_NET *37 0.525955
*CONN
*P io_in[8] I
*I *504:io_in[0] I *D spell
*CAP
1 io_in[8] 0.00082387
2 *504:io_in[0] 0.00151435
3 *37:11 0.0524777
4 *37:10 0.0509634
5 *37:8 0.0541398
6 *37:7 0.0549637
7 *504:io_in[0] *80:13 7.72273e-05
8 *504:io_in[0] *113:15 0.00683176
9 *504:io_in[0] *192:13 0.000819042
10 *504:io_in[0] *358:25 0.00662938
11 *37:8 *308:13 0
12 *37:8 *447:19 0
13 *37:11 *76:10 0.258222
14 *37:11 *81:10 0
15 *37:11 *356:22 0.00683352
16 *37:11 *366:18 0
17 *37:11 *388:10 0.0316586
18 *37:11 *406:13 0
19 *37:11 *496:10 0
*RES
1 io_in[8] *37:7 10.125 
2 *37:7 *37:8 415.53 
3 *37:8 *37:10 4.5 
4 *37:10 *37:11 763.83 
5 *37:11 *504:io_in[0] 46.53 
*END

*D_NET *38 0.281097
*CONN
*P io_in[9] I
*I *504:io_in[1] I *D spell
*CAP
1 io_in[9] 0.000441049
2 *504:io_in[1] 0.000220966
3 *38:11 0.0611695
4 *38:10 0.0609485
5 *38:8 0.00249592
6 *38:7 0.00293696
7 *504:io_in[1] *424:8 0.000249634
8 *38:8 *42:10 0.0362385
9 *38:8 *114:10 0.0853075
10 *38:8 *441:19 0.00377464
11 *38:8 *442:19 0.00185804
12 *38:8 *462:10 0.0118486
13 *38:8 *493:10 0.0136072
*RES
1 io_in[9] *38:7 7.065 
2 *38:7 *38:8 238.41 
3 *38:8 *38:10 4.5 
4 *38:10 *38:11 473.13 
5 *38:11 *504:io_in[1] 1.845 
*END

*D_NET *40 0.192409
*CONN
*P io_oeb[10] O
*I *504:io_oeb[2] O *D spell
*CAP
1 io_oeb[10] 0.0541344
2 *504:io_oeb[2] 0.000233309
3 *40:18 0.0541344
4 *40:16 0.00645222
5 *40:15 0.00645222
6 *40:13 0.00748744
7 *40:12 0.00772075
8 *40:13 *124:14 0.00492091
9 *40:13 *374:32 0.0386984
10 *40:13 *424:11 0.0121753
*RES
1 *504:io_oeb[2] *40:12 14.9361 
2 *40:12 *40:13 154.53 
3 *40:13 *40:15 4.5 
4 *40:15 *40:16 48.87 
5 *40:16 *40:18 4.5 
6 *40:18 io_oeb[10] 418.725 
*END

*D_NET *41 0.474045
*CONN
*P io_oeb[11] O
*I *504:io_oeb[3] O *D spell
*CAP
1 io_oeb[11] 0.000470578
2 *504:io_oeb[3] 0.00143456
3 *41:13 0.000804663
4 *41:12 0.000334085
5 *41:10 0.0312757
6 *41:9 0.0327103
7 *41:10 *82:10 0.0082173
8 *41:10 *185:16 0.224913
9 *41:10 *391:10 0.0297945
10 *41:13 *75:13 0.0725768
11 *41:13 *76:13 0.071514
*RES
1 *504:io_oeb[3] *41:9 13.815 
2 *41:9 *41:10 577.89 
3 *41:10 *41:12 4.5 
4 *41:12 *41:13 184.77 
5 *41:13 io_oeb[11] 7.605 
*END

*D_NET *42 0.178095
*CONN
*P io_oeb[12] O
*I *504:io_oeb[4] O *D spell
*CAP
1 io_oeb[12] 0.00031566
2 *504:io_oeb[4] 0.000208952
3 *42:10 0.00126612
4 *42:9 0.000950463
5 *42:7 0.0612875
6 *42:5 0.0614965
7 *42:10 *462:10 0.0163315
8 *38:8 *42:10 0.0362385
*RES
1 *504:io_oeb[4] *42:5 0.765 
2 *42:5 *42:7 473.31 
3 *42:7 *42:9 4.5 
4 *42:9 *42:10 92.25 
5 *42:10 io_oeb[12] 6.885 
*END

*D_NET *43 0.163304
*CONN
*P io_oeb[13] O
*I *504:io_oeb[5] O *D spell
*CAP
1 io_oeb[13] 0.000535266
2 *504:io_oeb[5] 0.00028564
3 *43:10 0.000584181
4 *43:9 4.89151e-05
5 *43:7 0.0607162
6 *43:5 0.0610018
7 *43:5 *424:8 0.000322697
8 *43:10 *113:19 0.0199006
9 *43:10 *447:19 0.0199087
*RES
1 *504:io_oeb[5] *43:5 2.385 
2 *43:5 *43:7 472.05 
3 *43:7 *43:9 4.5 
4 *43:9 *43:10 50.67 
5 *43:10 io_oeb[13] 8.145 
*END

*D_NET *44 0.518412
*CONN
*P io_oeb[14] O
*I *504:io_oeb[6] O *D spell
*CAP
1 io_oeb[14] 0.000145669
2 *504:io_oeb[6] 0.000321606
3 *44:16 0.0520731
4 *44:15 0.0519274
5 *44:13 0.0171874
6 *44:12 0.017509
7 *44:12 *428:13 0
8 *44:13 *122:25 0.0726129
9 *44:13 *191:13 0.0094937
10 *44:13 *428:13 0.00101273
11 *44:16 *125:14 0.296129
12 *44:16 *467:19 0
*RES
1 *504:io_oeb[6] *44:12 15.84 
2 *44:12 *44:13 240.57 
3 *44:13 *44:15 4.5 
4 *44:15 *44:16 766.17 
5 *44:16 io_oeb[14] 1.935 
*END

*D_NET *45 0.307749
*CONN
*P io_oeb[15] O
*I *504:io_oeb[7] O *D spell
*CAP
1 io_oeb[15] 0.00029378
2 *504:io_oeb[7] 0.00089243
3 *45:22 0.0432976
4 *45:21 0.0430038
5 *45:19 0.0494623
6 *45:18 0.0503559
7 *45:15 0.00178601
8 *45:15 *234:13 0.00289796
9 *45:15 *234:17 0.00321749
10 *45:15 *423:13 0.00989499
11 *45:19 *202:16 0
12 *45:19 *242:13 0.0527785
13 *45:19 *382:13 4.00973e-05
14 *45:19 *400:11 0.0156105
15 *45:19 *491:14 0.0342179
*RES
1 *504:io_oeb[7] *45:15 47.0661 
2 *45:15 *45:18 9.81 
3 *45:18 *45:19 600.57 
4 *45:19 *45:21 4.5 
5 *45:21 *45:22 323.01 
6 *45:22 io_oeb[15] 3.015 
*END

*D_NET *75 0.81161
*CONN
*P io_oeb[8] O
*I *504:io_oeb[0] O *D spell
*CAP
1 io_oeb[8] 0.000492136
2 *504:io_oeb[0] 0.00187454
3 *75:13 0.00169517
4 *75:12 0.00120303
5 *75:10 0.00692257
6 *75:9 0.00879711
7 *75:10 *120:14 0.233932
8 *75:10 *346:222 0.00606738
9 *75:10 *352:36 0.00964822
10 *75:10 *469:13 0.25789
11 *75:13 *76:13 0.00843388
12 *75:13 *113:19 0.144444
13 *75:13 *425:10 0.056398
14 *75:13 *447:19 0.0012356
15 *41:13 *75:13 0.0725768
*RES
1 *504:io_oeb[0] *75:9 15.795 
2 *75:9 *75:10 695.07 
3 *75:10 *75:12 4.5 
4 *75:12 *75:13 378.63 
5 *75:13 io_oeb[8] 7.785 
*END

*D_NET *76 0.736698
*CONN
*P io_oeb[9] O
*I *504:io_oeb[1] O *D spell
*CAP
1 io_oeb[9] 0.000431848
2 *504:io_oeb[1] 0.00101219
3 *76:13 0.00272396
4 *76:12 0.00229211
5 *76:10 0.00357928
6 *76:9 0.00459147
7 *76:10 *81:16 0.221731
8 *76:10 *328:118 0.0141448
9 *76:10 *356:22 0.00467628
10 *76:13 *114:10 0.111976
11 *76:13 *425:10 0.0313688
12 *37:11 *76:10 0.258222
13 *41:13 *76:13 0.071514
14 *75:13 *76:13 0.00843388
*RES
1 *504:io_oeb[1] *76:9 10.935 
2 *76:9 *76:10 649.53 
3 *76:10 *76:12 4.5 
4 *76:12 *76:13 309.51 
5 *76:13 io_oeb[9] 7.425 
*END

*D_NET *78 0.251062
*CONN
*P io_out[10] O
*I *504:io_out[2] O *D spell
*CAP
1 io_out[10] 0.00115562
2 *504:io_out[2] 0.00193766
3 *78:21 0.00612822
4 *78:16 0.0808645
5 *78:15 0.0778295
6 *78:15 *187:13 0.00137084
7 *78:15 *191:13 5.55975e-05
8 *78:15 *202:15 0.000275222
9 *78:15 *203:15 0.000120444
10 *78:15 *428:13 0.000125299
11 *78:15 *444:9 0.000107901
12 *78:16 *187:22 0
13 *78:16 *314:14 0.00255486
14 *78:16 *317:60 0
15 *78:16 *355:30 0.0478294
16 *78:16 *392:13 0.0101358
17 *78:16 *423:19 0.00209363
18 *78:16 *434:13 0.0141168
19 *78:16 *442:16 0
20 *78:16 *451:13 0
21 *78:16 *460:13 0
22 *78:16 *470:27 0.0043608
*RES
1 *504:io_out[2] *78:15 35.19 
2 *78:15 *78:16 757.53 
3 *78:16 *78:21 47.25 
4 *78:21 io_out[10] 7.965 
*END

*D_NET *79 0.232818
*CONN
*P io_out[11] O
*I *504:io_out[3] O *D spell
*CAP
1 io_out[11] 0.000253458
2 *504:io_out[3] 0.00140478
3 *79:19 0.0533702
4 *79:18 0.0531168
5 *79:16 0.0126408
6 *79:15 0.0126408
7 *79:13 0.0266503
8 *79:12 0.0280551
9 *79:13 *181:13 0
10 *79:13 *184:22 0.00192457
11 *79:13 *193:13 0
12 *79:13 *242:19 0.00644947
13 *79:13 *321:40 0.00872831
14 *79:13 *334:80 0.0191772
15 *79:13 *370:55 0
16 *79:13 *489:16 0.00840591
*RES
1 *504:io_out[3] *79:12 22.3083 
2 *79:12 *79:13 325.35 
3 *79:13 *79:15 4.5 
4 *79:15 *79:16 94.77 
5 *79:16 *79:18 4.5 
6 *79:18 *79:19 410.67 
7 *79:19 io_out[11] 2.835 
*END

*D_NET *80 0.726127
*CONN
*P io_out[12] O
*I *504:io_out[4] O *D spell
*CAP
1 io_out[12] 0.00143901
2 *504:io_out[4] 0.000922364
3 *80:19 0.0143669
4 *80:18 0.0129279
5 *80:16 0.00735783
6 *80:15 0.00735783
7 *80:13 0.00759786
8 *80:12 0.00852023
9 *80:13 *333:29 0.0418636
10 *80:13 *358:25 0.00145844
11 *80:13 *446:13 0.00164612
12 *80:16 *504:i_wb_data[18] 1.7404e-05
13 *80:16 *113:16 0.303882
14 *80:16 *183:9 0.000229357
15 *80:16 *397:10 0.07274
16 *80:16 *409:9 0.000229357
17 *80:16 *420:20 0
18 *80:16 *427:13 0.0116199
19 *80:16 *440:10 0.204121
20 *80:19 *81:19 0.0277529
21 *504:io_in[0] *80:13 7.72273e-05
*RES
1 *504:io_out[4] *80:12 19.62 
2 *80:12 *80:13 116.01 
3 *80:13 *80:15 4.5 
4 *80:15 *80:16 761.67 
5 *80:16 *80:18 4.5 
6 *80:18 *80:19 134.19 
7 *80:19 io_out[12] 12.825 
*END

*D_NET *81 0.371004
*CONN
*P io_out[13] O
*I *504:io_out[5] O *D spell
*CAP
1 io_out[13] 0.00116004
2 *504:io_out[5] 0.00381666
3 *81:19 0.00659151
4 *81:18 0.00543148
5 *81:16 0.0303426
6 *81:15 0.0306398
7 *81:10 0.00411387
8 *81:10 *406:13 0.00643492
9 *81:10 *496:10 0.00220544
10 *81:16 *328:118 0.0240301
11 *5:11 *81:16 0.0067537
12 *37:11 *81:10 0
13 *76:10 *81:16 0.221731
14 *80:19 *81:19 0.0277529
*RES
1 *504:io_out[5] *81:10 49.905 
2 *81:10 *81:15 10.89 
3 *81:15 *81:16 555.21 
4 *81:16 *81:18 4.5 
5 *81:18 *81:19 76.23 
6 *81:19 io_out[13] 12.645 
*END

*D_NET *82 0.219385
*CONN
*P io_out[14] O
*I *504:io_out[6] O *D spell
*CAP
1 io_out[14] 0.000188785
2 *504:io_out[6] 0.00152507
3 *82:16 0.0567708
4 *82:15 0.0591234
5 *82:10 0.0127384
6 *82:9 0.011722
7 *82:10 *182:10 0.0436605
8 *82:10 *391:10 0.00274277
9 *82:10 *497:10 0.022696
10 *41:10 *82:10 0.0082173
*RES
1 *504:io_out[6] *82:9 14.175 
2 *82:9 *82:10 190.53 
3 *82:10 *82:15 26.01 
4 *82:15 *82:16 440.37 
5 *82:16 io_out[14] 2.295 
*END

*D_NET *83 0.341662
*CONN
*P io_out[15] O
*I *504:io_out[7] O *D spell
*CAP
1 io_out[15] 0.0011707
2 *504:io_out[7] 0.00343287
3 *83:16 0.052386
4 *83:15 0.0546481
5 *83:15 *353:28 0.00217203
6 *83:15 *497:10 0
7 *83:16 *128:14 0
8 *83:16 *320:30 0.00576677
9 *83:16 *418:14 0
10 *83:16 *485:22 0
11 *7:8 *83:16 0.222086
*RES
1 *504:io_out[7] *83:15 37.935 
2 *83:15 *83:16 691.65 
3 *83:16 io_out[15] 12.825 
*END

*D_NET *113 0.661386
*CONN
*P io_out[8] O
*I *504:io_out[0] O *D spell
*CAP
1 io_out[8] 0.000513678
2 *504:io_out[0] 0.000926482
3 *113:19 0.00417923
4 *113:18 0.00366555
5 *113:16 0.0494457
6 *113:15 0.0503721
7 *113:15 *192:13 0.0084989
8 *113:15 *358:25 0.000752286
9 *113:16 *504:i_wb_data[18] 0.000386219
10 *113:16 *504:i_wb_data[23] 0.00158163
11 *113:16 *318:296 0
12 *113:16 *364:58 0
13 *113:16 *420:18 0.00102457
14 *113:16 *420:20 0
15 *113:16 *438:9 0
16 *113:19 *425:10 0.00381128
17 *113:19 *447:19 0.059985
18 *504:io_in[0] *113:15 0.00683176
19 *504:io_in[3] *113:16 0.00118543
20 *3:19 *113:16 0
21 *43:10 *113:19 0.0199006
22 *75:13 *113:19 0.144444
23 *80:16 *113:16 0.303882
*RES
1 *504:io_out[0] *113:15 45.27 
2 *113:15 *113:16 765.81 
3 *113:16 *113:18 4.5 
4 *113:18 *113:19 389.07 
5 *113:19 io_out[8] 7.965 
*END

*D_NET *114 0.367999
*CONN
*P io_out[9] O
*I *504:io_out[1] O *D spell
*CAP
1 io_out[9] 0.000410306
2 *504:io_out[1] 0.000195885
3 *114:10 0.00577074
4 *114:9 0.00536043
5 *114:7 0.0749154
6 *114:5 0.0751113
7 *114:10 *425:10 0.000926787
8 *114:10 *441:19 0.00625248
9 *114:10 *462:10 0.00177261
10 *38:8 *114:10 0.0853075
11 *76:13 *114:10 0.111976
*RES
1 *504:io_out[1] *114:5 1.305 
2 *114:5 *114:7 472.95 
3 *114:7 *114:9 4.5 
4 *114:9 *114:10 306.27 
5 *114:10 io_out[9] 7.245 
*END

*D_NET *116 0.929721
*CONN
*P la_data_in[10] I
*I *504:i_la_addr[2] I *D spell
*CAP
1 la_data_in[10] 0.000103907
2 *504:i_la_addr[2] 0.000932408
3 *116:66 0.015061
4 *116:65 0.0141286
5 *116:63 0.00247426
6 *116:62 0.00447484
7 *116:46 0.00335367
8 *116:39 0.00462907
9 *116:33 0.00566429
10 *116:24 0.00584067
11 *116:12 0.0102563
12 *116:11 0.00690787
13 *116:12 la_data_out[9] 0.000103507
14 *116:12 *179:58 0.0936038
15 *116:12 *181:61 0.129088
16 *116:24 wbs_dat_o[6] 0
17 *116:24 *177:13 6.4852e-05
18 *116:24 *234:56 0.000149723
19 *116:24 *242:72 0.00097295
20 *116:24 *336:27 0.000231841
21 *116:24 *345:13 0
22 *116:24 *380:12 0.00293403
23 *116:24 *380:18 0.000875244
24 *116:24 *390:16 0.000274591
25 *116:33 *181:52 0.000619268
26 *116:33 *331:38 0.000137793
27 *116:33 *376:15 0.000596329
28 *116:33 *376:16 0.000761266
29 *116:33 *394:36 0.00127364
30 *116:33 *401:47 1.59607e-05
31 *116:33 *407:19 0.00044095
32 *116:33 *482:30 0.000301456
33 *116:33 *490:35 5.59272e-05
34 *116:39 *328:49 0.000508178
35 *116:39 *330:35 0.000578038
36 *116:39 *337:31 0.000565679
37 *116:39 *365:24 0.00115714
38 *116:39 *374:15 0
39 *116:39 *391:38 0.00391648