*SPEF "ieee 1481-1999"
*DESIGN "user_project_wrapper"
*DATE "11:11:11 Fri 11 11, 1111"
*VENDOR "OpenRCX"
*PROGRAM "Parallel Extraction"
*VERSION "1.0"
*DESIGN_FLOW "NAME_SCOPE LOCAL" "PIN_CAP NONE"
*DIVIDER /
*DELIMITER :
*BUS_DELIMITER []
*T_UNIT 1 NS
*C_UNIT 1 PF
*R_UNIT 1 OHM
*L_UNIT 1 HENRY

*NAME_MAP
*1 io_in[0]
*2 io_in[10]
*3 io_in[11]
*4 io_in[12]
*5 io_in[13]
*6 io_in[14]
*7 io_in[15]
*8 io_in[16]
*9 io_in[17]
*10 io_in[18]
*11 io_in[19]
*12 io_in[1]
*13 io_in[20]
*14 io_in[21]
*15 io_in[22]
*16 io_in[23]
*17 io_in[24]
*18 io_in[25]
*19 io_in[26]
*20 io_in[27]
*21 io_in[28]
*22 io_in[29]
*23 io_in[2]
*24 io_in[30]
*25 io_in[31]
*26 io_in[32]
*27 io_in[33]
*28 io_in[34]
*29 io_in[35]
*30 io_in[36]
*31 io_in[37]
*32 io_in[3]
*33 io_in[4]
*34 io_in[5]
*35 io_in[6]
*36 io_in[7]
*37 io_in[8]
*38 io_in[9]
*39 io_oeb[0]
*40 io_oeb[10]
*41 io_oeb[11]
*42 io_oeb[12]
*43 io_oeb[13]
*44 io_oeb[14]
*45 io_oeb[15]
*46 io_oeb[16]
*47 io_oeb[17]
*48 io_oeb[18]
*49 io_oeb[19]
*50 io_oeb[1]
*51 io_oeb[20]
*52 io_oeb[21]
*53 io_oeb[22]
*54 io_oeb[23]
*55 io_oeb[24]
*56 io_oeb[25]
*57 io_oeb[26]
*58 io_oeb[27]
*59 io_oeb[28]
*60 io_oeb[29]
*61 io_oeb[2]
*62 io_oeb[30]
*63 io_oeb[31]
*64 io_oeb[32]
*65 io_oeb[33]
*66 io_oeb[34]
*67 io_oeb[35]
*68 io_oeb[36]
*69 io_oeb[37]
*70 io_oeb[3]
*71 io_oeb[4]
*72 io_oeb[5]
*73 io_oeb[6]
*74 io_oeb[7]
*75 io_oeb[8]
*76 io_oeb[9]
*77 io_out[0]
*78 io_out[10]
*79 io_out[11]
*80 io_out[12]
*81 io_out[13]
*82 io_out[14]
*83 io_out[15]
*84 io_out[16]
*85 io_out[17]
*86 io_out[18]
*87 io_out[19]
*88 io_out[1]
*89 io_out[20]
*90 io_out[21]
*91 io_out[22]
*92 io_out[23]
*93 io_out[24]
*94 io_out[25]
*95 io_out[26]
*96 io_out[27]
*97 io_out[28]
*98 io_out[29]
*99 io_out[2]
*100 io_out[30]
*101 io_out[31]
*102 io_out[32]
*103 io_out[33]
*104 io_out[34]
*105 io_out[35]
*106 io_out[36]
*107 io_out[37]
*108 io_out[3]
*109 io_out[4]
*110 io_out[5]
*111 io_out[6]
*112 io_out[7]
*113 io_out[8]
*114 io_out[9]
*115 la_data_in[0]
*116 la_data_in[10]
*117 la_data_in[11]
*118 la_data_in[12]
*119 la_data_in[13]
*120 la_data_in[14]
*121 la_data_in[15]
*122 la_data_in[16]
*123 la_data_in[17]
*124 la_data_in[18]
*125 la_data_in[19]
*126 la_data_in[1]
*127 la_data_in[20]
*128 la_data_in[21]
*129 la_data_in[22]
*130 la_data_in[23]
*131 la_data_in[24]
*132 la_data_in[25]
*133 la_data_in[26]
*134 la_data_in[27]
*135 la_data_in[28]
*136 la_data_in[29]
*137 la_data_in[2]
*138 la_data_in[30]
*139 la_data_in[31]
*140 la_data_in[32]
*141 la_data_in[33]
*142 la_data_in[34]
*143 la_data_in[35]
*144 la_data_in[36]
*145 la_data_in[37]
*146 la_data_in[38]
*147 la_data_in[39]
*148 la_data_in[3]
*149 la_data_in[40]
*150 la_data_in[41]
*151 la_data_in[42]
*152 la_data_in[43]
*153 la_data_in[44]
*154 la_data_in[45]
*155 la_data_in[46]
*156 la_data_in[47]
*157 la_data_in[48]
*158 la_data_in[49]
*159 la_data_in[4]
*160 la_data_in[50]
*161 la_data_in[51]
*162 la_data_in[52]
*163 la_data_in[53]
*164 la_data_in[54]
*165 la_data_in[55]
*166 la_data_in[56]
*167 la_data_in[57]
*168 la_data_in[58]
*169 la_data_in[59]
*170 la_data_in[5]
*171 la_data_in[60]
*172 la_data_in[61]
*173 la_data_in[62]
*174 la_data_in[63]
*175 la_data_in[6]
*176 la_data_in[7]
*177 la_data_in[8]
*178 la_data_in[9]
*179 la_data_out[0]
*180 la_data_out[10]
*181 la_data_out[11]
*182 la_data_out[12]
*183 la_data_out[13]
*184 la_data_out[14]
*185 la_data_out[15]
*186 la_data_out[16]
*187 la_data_out[17]
*188 la_data_out[18]
*189 la_data_out[19]
*190 la_data_out[1]
*191 la_data_out[20]
*192 la_data_out[21]
*193 la_data_out[22]
*194 la_data_out[23]
*195 la_data_out[24]
*196 la_data_out[25]
*197 la_data_out[26]
*198 la_data_out[27]
*199 la_data_out[28]
*200 la_data_out[29]
*201 la_data_out[2]
*202 la_data_out[30]
*203 la_data_out[31]
*204 la_data_out[32]
*205 la_data_out[33]
*206 la_data_out[34]
*207 la_data_out[35]
*208 la_data_out[36]
*209 la_data_out[37]
*210 la_data_out[38]
*211 la_data_out[39]
*212 la_data_out[3]
*213 la_data_out[40]
*214 la_data_out[41]
*215 la_data_out[42]
*216 la_data_out[43]
*217 la_data_out[44]
*218 la_data_out[45]
*219 la_data_out[46]
*220 la_data_out[47]
*221 la_data_out[48]
*222 la_data_out[49]
*223 la_data_out[4]
*224 la_data_out[50]
*225 la_data_out[51]
*226 la_data_out[52]
*227 la_data_out[53]
*228 la_data_out[54]
*229 la_data_out[55]
*230 la_data_out[56]
*231 la_data_out[57]
*232 la_data_out[58]
*233 la_data_out[59]
*234 la_data_out[5]
*235 la_data_out[60]
*236 la_data_out[61]
*237 la_data_out[62]
*238 la_data_out[63]
*239 la_data_out[6]
*240 la_data_out[7]
*241 la_data_out[8]
*242 la_data_out[9]
*243 la_oenb[0]
*244 la_oenb[10]
*245 la_oenb[11]
*246 la_oenb[12]
*247 la_oenb[13]
*248 la_oenb[14]
*249 la_oenb[15]
*250 la_oenb[16]
*251 la_oenb[17]
*252 la_oenb[18]
*253 la_oenb[19]
*254 la_oenb[1]
*255 la_oenb[20]
*256 la_oenb[21]
*257 la_oenb[22]
*258 la_oenb[23]
*259 la_oenb[24]
*260 la_oenb[25]
*261 la_oenb[26]
*262 la_oenb[27]
*263 la_oenb[28]
*264 la_oenb[29]
*265 la_oenb[2]
*266 la_oenb[30]
*267 la_oenb[31]
*268 la_oenb[32]
*269 la_oenb[33]
*270 la_oenb[34]
*271 la_oenb[35]
*272 la_oenb[36]
*273 la_oenb[37]
*274 la_oenb[38]
*275 la_oenb[39]
*276 la_oenb[3]
*277 la_oenb[40]
*278 la_oenb[41]
*279 la_oenb[42]
*280 la_oenb[43]
*281 la_oenb[44]
*282 la_oenb[45]
*283 la_oenb[46]
*284 la_oenb[47]
*285 la_oenb[48]
*286 la_oenb[49]
*287 la_oenb[4]
*288 la_oenb[50]
*289 la_oenb[51]
*290 la_oenb[52]
*291 la_oenb[53]
*292 la_oenb[54]
*293 la_oenb[55]
*294 la_oenb[56]
*295 la_oenb[57]
*296 la_oenb[58]
*297 la_oenb[59]
*298 la_oenb[5]
*299 la_oenb[60]
*300 la_oenb[61]
*301 la_oenb[62]
*302 la_oenb[63]
*303 la_oenb[6]
*304 la_oenb[7]
*305 la_oenb[8]
*306 la_oenb[9]
*307 user_clock2
*308 user_irq[0]
*309 user_irq[1]
*310 user_irq[2]
*313 wb_clk_i
*314 wb_rst_i
*315 wbs_ack_o
*316 wbs_adr_i[0]
*317 wbs_adr_i[10]
*318 wbs_adr_i[11]
*319 wbs_adr_i[12]
*320 wbs_adr_i[13]
*321 wbs_adr_i[14]
*322 wbs_adr_i[15]
*323 wbs_adr_i[16]
*324 wbs_adr_i[17]
*325 wbs_adr_i[18]
*326 wbs_adr_i[19]
*327 wbs_adr_i[1]
*328 wbs_adr_i[20]
*329 wbs_adr_i[21]
*330 wbs_adr_i[22]
*331 wbs_adr_i[23]
*332 wbs_adr_i[24]
*333 wbs_adr_i[25]
*334 wbs_adr_i[26]
*335 wbs_adr_i[27]
*336 wbs_adr_i[28]
*337 wbs_adr_i[29]
*338 wbs_adr_i[2]
*339 wbs_adr_i[30]
*340 wbs_adr_i[31]
*341 wbs_adr_i[3]
*342 wbs_adr_i[4]
*343 wbs_adr_i[5]
*344 wbs_adr_i[6]
*345 wbs_adr_i[7]
*346 wbs_adr_i[8]
*347 wbs_adr_i[9]
*348 wbs_cyc_i
*349 wbs_dat_i[0]
*350 wbs_dat_i[10]
*351 wbs_dat_i[11]
*352 wbs_dat_i[12]
*353 wbs_dat_i[13]
*354 wbs_dat_i[14]
*355 wbs_dat_i[15]
*356 wbs_dat_i[16]
*357 wbs_dat_i[17]
*358 wbs_dat_i[18]
*359 wbs_dat_i[19]
*360 wbs_dat_i[1]
*361 wbs_dat_i[20]
*362 wbs_dat_i[21]
*363 wbs_dat_i[22]
*364 wbs_dat_i[23]
*365 wbs_dat_i[24]
*366 wbs_dat_i[25]
*367 wbs_dat_i[26]
*368 wbs_dat_i[27]
*369 wbs_dat_i[28]
*370 wbs_dat_i[29]
*371 wbs_dat_i[2]
*372 wbs_dat_i[30]
*373 wbs_dat_i[31]
*374 wbs_dat_i[3]
*375 wbs_dat_i[4]
*376 wbs_dat_i[5]
*377 wbs_dat_i[6]
*378 wbs_dat_i[7]
*379 wbs_dat_i[8]
*380 wbs_dat_i[9]
*381 wbs_dat_o[0]
*382 wbs_dat_o[10]
*383 wbs_dat_o[11]
*384 wbs_dat_o[12]
*385 wbs_dat_o[13]
*386 wbs_dat_o[14]
*387 wbs_dat_o[15]
*388 wbs_dat_o[16]
*389 wbs_dat_o[17]
*390 wbs_dat_o[18]
*391 wbs_dat_o[19]
*392 wbs_dat_o[1]
*393 wbs_dat_o[20]
*394 wbs_dat_o[21]
*395 wbs_dat_o[22]
*396 wbs_dat_o[23]
*397 wbs_dat_o[24]
*398 wbs_dat_o[25]
*399 wbs_dat_o[26]
*400 wbs_dat_o[27]
*401 wbs_dat_o[28]
*402 wbs_dat_o[29]
*403 wbs_dat_o[2]
*404 wbs_dat_o[30]
*405 wbs_dat_o[31]
*406 wbs_dat_o[3]
*407 wbs_dat_o[4]
*408 wbs_dat_o[5]
*409 wbs_dat_o[6]
*410 wbs_dat_o[7]
*411 wbs_dat_o[8]
*412 wbs_dat_o[9]
*413 wbs_sel_i[0]
*414 wbs_sel_i[1]
*415 wbs_sel_i[2]
*416 wbs_sel_i[3]
*417 wbs_stb_i
*418 wbs_we_i
*419 spell

*PORTS
io_in[0] I
io_in[10] I
io_in[11] I
io_in[12] I
io_in[13] I
io_in[14] I
io_in[15] I
io_in[16] I
io_in[17] I
io_in[18] I
io_in[19] I
io_in[1] I
io_in[20] I
io_in[21] I
io_in[22] I
io_in[23] I
io_in[24] I
io_in[25] I
io_in[26] I
io_in[27] I
io_in[28] I
io_in[29] I
io_in[2] I
io_in[30] I
io_in[31] I
io_in[32] I
io_in[33] I
io_in[34] I
io_in[35] I
io_in[36] I
io_in[37] I
io_in[3] I
io_in[4] I
io_in[5] I
io_in[6] I
io_in[7] I
io_in[8] I
io_in[9] I
io_oeb[0] O
io_oeb[10] O
io_oeb[11] O
io_oeb[12] O
io_oeb[13] O
io_oeb[14] O
io_oeb[15] O
io_oeb[16] O
io_oeb[17] O
io_oeb[18] O
io_oeb[19] O
io_oeb[1] O
io_oeb[20] O
io_oeb[21] O
io_oeb[22] O
io_oeb[23] O
io_oeb[24] O
io_oeb[25] O
io_oeb[26] O
io_oeb[27] O
io_oeb[28] O
io_oeb[29] O
io_oeb[2] O
io_oeb[30] O
io_oeb[31] O
io_oeb[32] O
io_oeb[33] O
io_oeb[34] O
io_oeb[35] O
io_oeb[36] O
io_oeb[37] O
io_oeb[3] O
io_oeb[4] O
io_oeb[5] O
io_oeb[6] O
io_oeb[7] O
io_oeb[8] O
io_oeb[9] O
io_out[0] O
io_out[10] O
io_out[11] O
io_out[12] O
io_out[13] O
io_out[14] O
io_out[15] O
io_out[16] O
io_out[17] O
io_out[18] O
io_out[19] O
io_out[1] O
io_out[20] O
io_out[21] O
io_out[22] O
io_out[23] O
io_out[24] O
io_out[25] O
io_out[26] O
io_out[27] O
io_out[28] O
io_out[29] O
io_out[2] O
io_out[30] O
io_out[31] O
io_out[32] O
io_out[33] O
io_out[34] O
io_out[35] O
io_out[36] O
io_out[37] O
io_out[3] O
io_out[4] O
io_out[5] O
io_out[6] O
io_out[7] O
io_out[8] O
io_out[9] O
la_data_in[0] I
la_data_in[10] I
la_data_in[11] I
la_data_in[12] I
la_data_in[13] I
la_data_in[14] I
la_data_in[15] I
la_data_in[16] I
la_data_in[17] I
la_data_in[18] I
la_data_in[19] I
la_data_in[1] I
la_data_in[20] I
la_data_in[21] I
la_data_in[22] I
la_data_in[23] I
la_data_in[24] I
la_data_in[25] I
la_data_in[26] I
la_data_in[27] I
la_data_in[28] I
la_data_in[29] I
la_data_in[2] I
la_data_in[30] I
la_data_in[31] I
la_data_in[32] I
la_data_in[33] I
la_data_in[34] I
la_data_in[35] I
la_data_in[36] I
la_data_in[37] I
la_data_in[38] I
la_data_in[39] I
la_data_in[3] I
la_data_in[40] I
la_data_in[41] I
la_data_in[42] I
la_data_in[43] I
la_data_in[44] I
la_data_in[45] I
la_data_in[46] I
la_data_in[47] I
la_data_in[48] I
la_data_in[49] I
la_data_in[4] I
la_data_in[50] I
la_data_in[51] I
la_data_in[52] I
la_data_in[53] I
la_data_in[54] I
la_data_in[55] I
la_data_in[56] I
la_data_in[57] I
la_data_in[58] I
la_data_in[59] I
la_data_in[5] I
la_data_in[60] I
la_data_in[61] I
la_data_in[62] I
la_data_in[63] I
la_data_in[6] I
la_data_in[7] I
la_data_in[8] I
la_data_in[9] I
la_data_out[0] O
la_data_out[10] O
la_data_out[11] O
la_data_out[12] O
la_data_out[13] O
la_data_out[14] O
la_data_out[15] O
la_data_out[16] O
la_data_out[17] O
la_data_out[18] O
la_data_out[19] O
la_data_out[1] O
la_data_out[20] O
la_data_out[21] O
la_data_out[22] O
la_data_out[23] O
la_data_out[24] O
la_data_out[25] O
la_data_out[26] O
la_data_out[27] O
la_data_out[28] O
la_data_out[29] O
la_data_out[2] O
la_data_out[30] O
la_data_out[31] O
la_data_out[32] O
la_data_out[33] O
la_data_out[34] O
la_data_out[35] O
la_data_out[36] O
la_data_out[37] O
la_data_out[38] O
la_data_out[39] O
la_data_out[3] O
la_data_out[40] O
la_data_out[41] O
la_data_out[42] O
la_data_out[43] O
la_data_out[44] O
la_data_out[45] O
la_data_out[46] O
la_data_out[47] O
la_data_out[48] O
la_data_out[49] O
la_data_out[4] O
la_data_out[50] O
la_data_out[51] O
la_data_out[52] O
la_data_out[53] O
la_data_out[54] O
la_data_out[55] O
la_data_out[56] O
la_data_out[57] O
la_data_out[58] O
la_data_out[59] O
la_data_out[5] O
la_data_out[60] O
la_data_out[61] O
la_data_out[62] O
la_data_out[63] O
la_data_out[6] O
la_data_out[7] O
la_data_out[8] O
la_data_out[9] O
la_oenb[0] I
la_oenb[10] I
la_oenb[11] I
la_oenb[12] I
la_oenb[13] I
la_oenb[14] I
la_oenb[15] I
la_oenb[16] I
la_oenb[17] I
la_oenb[18] I
la_oenb[19] I
la_oenb[1] I
la_oenb[20] I
la_oenb[21] I
la_oenb[22] I
la_oenb[23] I
la_oenb[24] I
la_oenb[25] I
la_oenb[26] I
la_oenb[27] I
la_oenb[28] I
la_oenb[29] I
la_oenb[2] I
la_oenb[30] I
la_oenb[31] I
la_oenb[32] I
la_oenb[33] I
la_oenb[34] I
la_oenb[35] I
la_oenb[36] I
la_oenb[37] I
la_oenb[38] I
la_oenb[39] I
la_oenb[3] I
la_oenb[40] I
la_oenb[41] I
la_oenb[42] I
la_oenb[43] I
la_oenb[44] I
la_oenb[45] I
la_oenb[46] I
la_oenb[47] I
la_oenb[48] I
la_oenb[49] I
la_oenb[4] I
la_oenb[50] I
la_oenb[51] I
la_oenb[52] I
la_oenb[53] I
la_oenb[54] I
la_oenb[55] I
la_oenb[56] I
la_oenb[57] I
la_oenb[58] I
la_oenb[59] I
la_oenb[5] I
la_oenb[60] I
la_oenb[61] I
la_oenb[62] I
la_oenb[63] I
la_oenb[6] I
la_oenb[7] I
la_oenb[8] I
la_oenb[9] I
user_clock2 I
user_irq[0] O
user_irq[1] O
user_irq[2] O
wb_clk_i I
wb_rst_i I
wbs_ack_o O
wbs_adr_i[0] I
wbs_adr_i[10] I
wbs_adr_i[11] I
wbs_adr_i[12] I
wbs_adr_i[13] I
wbs_adr_i[14] I
wbs_adr_i[15] I
wbs_adr_i[16] I
wbs_adr_i[17] I
wbs_adr_i[18] I
wbs_adr_i[19] I
wbs_adr_i[1] I
wbs_adr_i[20] I
wbs_adr_i[21] I
wbs_adr_i[22] I
wbs_adr_i[23] I
wbs_adr_i[24] I
wbs_adr_i[25] I
wbs_adr_i[26] I
wbs_adr_i[27] I
wbs_adr_i[28] I
wbs_adr_i[29] I
wbs_adr_i[2] I
wbs_adr_i[30] I
wbs_adr_i[31] I
wbs_adr_i[3] I
wbs_adr_i[4] I
wbs_adr_i[5] I
wbs_adr_i[6] I
wbs_adr_i[7] I
wbs_adr_i[8] I
wbs_adr_i[9] I
wbs_cyc_i I
wbs_dat_i[0] I
wbs_dat_i[10] I
wbs_dat_i[11] I
wbs_dat_i[12] I
wbs_dat_i[13] I
wbs_dat_i[14] I
wbs_dat_i[15] I
wbs_dat_i[16] I
wbs_dat_i[17] I
wbs_dat_i[18] I
wbs_dat_i[19] I
wbs_dat_i[1] I
wbs_dat_i[20] I
wbs_dat_i[21] I
wbs_dat_i[22] I
wbs_dat_i[23] I
wbs_dat_i[24] I
wbs_dat_i[25] I
wbs_dat_i[26] I
wbs_dat_i[27] I
wbs_dat_i[28] I
wbs_dat_i[29] I
wbs_dat_i[2] I
wbs_dat_i[30] I
wbs_dat_i[31] I
wbs_dat_i[3] I
wbs_dat_i[4] I
wbs_dat_i[5] I
wbs_dat_i[6] I
wbs_dat_i[7] I
wbs_dat_i[8] I
wbs_dat_i[9] I
wbs_dat_o[0] O
wbs_dat_o[10] O
wbs_dat_o[11] O
wbs_dat_o[12] O
wbs_dat_o[13] O
wbs_dat_o[14] O
wbs_dat_o[15] O
wbs_dat_o[16] O
wbs_dat_o[17] O
wbs_dat_o[18] O
wbs_dat_o[19] O
wbs_dat_o[1] O
wbs_dat_o[20] O
wbs_dat_o[21] O
wbs_dat_o[22] O
wbs_dat_o[23] O
wbs_dat_o[24] O
wbs_dat_o[25] O
wbs_dat_o[26] O
wbs_dat_o[27] O
wbs_dat_o[28] O
wbs_dat_o[29] O
wbs_dat_o[2] O
wbs_dat_o[30] O
wbs_dat_o[31] O
wbs_dat_o[3] O
wbs_dat_o[4] O
wbs_dat_o[5] O
wbs_dat_o[6] O
wbs_dat_o[7] O
wbs_dat_o[8] O
wbs_dat_o[9] O
wbs_sel_i[0] I
wbs_sel_i[1] I
wbs_sel_i[2] I
wbs_sel_i[3] I
wbs_stb_i I
wbs_we_i I

*D_NET *2 0.258089
*CONN
*P io_in[10] I
*I *419:io_in[2] I *D spell
*CAP
1 io_in[10] 0.00480312
2 *419:io_in[2] 0.000351029
3 *2:15 0.00459616
4 *2:14 0.00424513
5 *2:12 0.05556
6 *2:11 0.05556
7 *2:9 0.0515151
8 *2:7 0.0563182
9 *419:io_in[2] *182:23 0
10 *2:12 *183:13 0.00844294
11 *2:12 *418:11 0
12 *2:15 *182:22 0.00734876
13 *2:15 *203:8 0.00021549
14 *2:15 *372:16 0.00880341
15 *2:15 *407:19 0.000329631
*RES
1 io_in[10] *2:7 37.305 
2 *2:7 *2:9 403.74 
3 *2:9 *2:11 4.5 
4 *2:11 *2:12 456.57 
5 *2:12 *2:14 4.5 
6 *2:14 *2:15 61.65 
7 *2:15 *419:io_in[2] 15.8361 
*END

*D_NET *3 0.274217
*CONN
*P io_in[11] I
*I *419:io_in[3] I *D spell
*CAP
1 io_in[11] 0.000363176
2 *419:io_in[3] 0.00136594
3 *3:11 0.0793019
4 *3:10 0.077936
5 *3:8 0.0146278
6 *3:7 0.0149909
7 *3:8 *38:8 0.00143663
8 *3:8 *41:13 0.084195
*RES
1 io_in[11] *3:7 7.425 
2 *3:7 *3:8 222.39 
3 *3:8 *3:10 4.5 
4 *3:10 *3:11 609.75 
5 *3:11 *419:io_in[3] 13.635 
*END

*D_NET *4 0.303651
*CONN
*P io_in[12] I
*I *419:io_in[4] I *D spell
*CAP
1 io_in[12] 0.000167227
2 *419:io_in[4] 0.000911593
3 *4:19 0.00445102
4 *4:18 0.00353943
5 *4:16 0.076338
6 *4:15 0.076338
7 *4:13 0.054445
8 *4:11 0.0546122
9 *4:19 *419:i_wb_data[3] 0.00140611
10 *4:19 *40:13 0.0278377
11 *4:19 *378:8 0.000880428
12 *4:19 *410:17 0.00272413
*RES
1 io_in[12] *4:11 2.115 
2 *4:11 *4:13 426.87 
3 *4:13 *4:15 4.5 
4 *4:15 *4:16 586.53 
5 *4:16 *4:18 4.5 
6 *4:18 *4:19 70.83 
7 *4:19 *419:io_in[4] 18.8961 
*END

*D_NET *5 0.434803
*CONN
*P io_in[13] I
*I *419:io_in[5] I *D spell
*CAP
1 io_in[13] 0.000483751
2 *419:io_in[5] 0.00177957
3 *5:11 0.0663059
4 *5:10 0.0645264
5 *5:8 0.000265704
6 *5:7 0.000749455
7 *419:io_in[5] *350:16 0.000229357
8 *5:8 *6:8 0.136415
9 *5:8 *7:11 0.135352
10 *5:8 *38:8 0.000472264
11 *5:11 *83:10 0.0282227
*RES
1 io_in[13] *5:7 8.145 
2 *5:7 *5:8 347.13 
3 *5:8 *5:10 4.5 
4 *5:10 *5:11 539.73 
5 *5:11 *419:io_in[5] 16.875 
*END

*D_NET *6 0.468885
*CONN
*P io_in[14] I
*I *419:io_in[6] I *D spell
*CAP
1 io_in[14] 0.000619882
2 *419:io_in[6] 0.000210844
3 *6:11 0.0607175
4 *6:10 0.0605066
5 *6:8 0.00375882
6 *6:7 0.0043787
7 *6:8 *7:11 0.0112971
8 *6:8 *38:8 0.00871274
9 *6:8 *43:10 0.182268
10 *5:8 *6:8 0.136415
*RES
1 io_in[14] *6:7 8.325 
2 *6:7 *6:8 485.01 
3 *6:8 *6:10 4.5 
4 *6:10 *6:11 471.87 
5 *6:11 *419:io_in[6] 1.125 
*END

*D_NET *7 0.477446
*CONN
*P io_in[15] I
*I *419:io_in[7] I *D spell
*CAP
1 io_in[15] 0.00284027
2 *419:io_in[7] 0.00201836
3 *7:14 0.0794199
4 *7:13 0.0774015
5 *7:11 0.00599636
6 *7:10 0.00883663
7 *7:11 *38:8 0.0351841
8 *7:11 *41:13 0.0118837
9 *7:11 *82:17 0.107215
10 *5:8 *7:11 0.135352
11 *6:8 *7:11 0.0112971
*RES
1 io_in[15] *7:10 31.815 
2 *7:10 *7:11 453.15 
3 *7:11 *7:13 4.5 
4 *7:13 *7:14 605.43 
5 *7:14 *419:io_in[7] 18.495 
*END

*D_NET *37 0.217462
*CONN
*P io_in[8] I
*I *419:io_in[0] I *D spell
*CAP
1 io_in[8] 0.0978218
2 *419:io_in[0] 0.00039974
3 *37:8 0.00663398
4 *37:7 0.00623424
5 *37:5 0.0978218
6 *419:io_in[0] *397:16 6.67108e-06
7 *37:8 *359:19 0.0085438
*RES
1 io_in[8] *37:5 766.125 
2 *37:5 *37:7 4.5 
3 *37:7 *37:8 57.15 
4 *37:8 *419:io_in[0] 15.84 
*END

*D_NET *38 0.226627
*CONN
*P io_in[9] I
*I *419:io_in[1] I *D spell
*CAP
1 io_in[9] 0.000537577
2 *419:io_in[1] 0.000150904
3 *38:11 0.0606218
4 *38:10 0.0604709
5 *38:8 0.0104834
6 *38:7 0.011021
7 *38:8 *41:13 0.0341256
8 *38:8 *42:10 0.000511153
9 *38:8 *43:10 0.00289912
10 *3:8 *38:8 0.00143663
11 *5:8 *38:8 0.000472264
12 *6:8 *38:8 0.00871274
13 *7:11 *38:8 0.0351841
*RES
1 io_in[9] *38:7 7.785 
2 *38:7 *38:8 209.61 
3 *38:8 *38:10 4.5 
4 *38:10 *38:11 471.33 
5 *38:11 *419:io_in[1] 1.305 
*END

*D_NET *40 0.365213
*CONN
*P io_oeb[10] O
*I *419:io_oeb[2] O *D spell
*CAP
1 io_oeb[10] 0.0427492
2 *419:io_oeb[2] 0.000786317
3 *40:18 0.0427492
4 *40:16 0.0653855
5 *40:15 0.0653855
6 *40:13 0.00903046
7 *40:12 0.00981677
8 *40:12 *45:18 0.000111083
9 *40:13 *419:i_la_addr[0] 0.000275462
10 *40:13 *79:13 0.0945463
11 *40:13 *410:17 0.0065396
12 *4:19 *40:13 0.0278377
*RES
1 *419:io_oeb[2] *40:12 18.7161 
2 *40:12 *40:13 238.23 
3 *40:13 *40:15 4.5 
4 *40:15 *40:16 502.65 
5 *40:16 *40:18 4.5 
6 *40:18 io_oeb[10] 335.025 
*END

*D_NET *41 0.365957
*CONN
*P io_oeb[11] O
*I *419:io_oeb[3] O *D spell
*CAP
1 io_oeb[11] 0.000384734
2 *419:io_oeb[3] 0.0023828
3 *41:13 0.00392692
4 *41:12 0.00354219
5 *41:10 0.0913489
6 *41:9 0.0937317
7 *41:13 *82:17 0.0404352
8 *3:8 *41:13 0.084195
9 *7:11 *41:13 0.0118837
10 *38:8 *41:13 0.0341256
*RES
1 *419:io_oeb[3] *41:9 21.195 
2 *41:9 *41:10 578.79 
3 *41:10 *41:12 4.5 
4 *41:12 *41:13 256.77 
5 *41:13 io_oeb[11] 7.605 
*END

*D_NET *42 0.379387
*CONN
*P io_oeb[12] O
*I *419:io_oeb[4] O *D spell
*CAP
1 io_oeb[12] 0.000599939
2 *419:io_oeb[4] 0.000236479
3 *42:10 0.042824
4 *42:9 0.0422241
5 *42:7 0.0607554
6 *42:5 0.0609918
7 *42:5 *212:13 0.000225279
8 *42:10 *43:10 0.171019
9 *38:8 *42:10 0.000511153
*RES
1 *419:io_oeb[4] *42:5 1.665 
2 *42:5 *42:7 471.51 
3 *42:7 *42:9 4.5 
4 *42:9 *42:10 543.15 
5 *42:10 io_oeb[12] 8.685 
*END

*D_NET *43 0.489552
*CONN
*P io_oeb[13] O
*I *419:io_oeb[5] O *D spell
*CAP
1 io_oeb[13] 0.000544023
2 *419:io_oeb[5] 0.000109639
3 *43:10 0.0060541
4 *43:9 0.00551008
5 *43:7 0.0605194
6 *43:5 0.060629
7 *6:8 *43:10 0.182268
8 *38:8 *43:10 0.00289912
9 *42:10 *43:10 0.171019
*RES
1 *419:io_oeb[5] *43:5 0.585 
2 *43:5 *43:7 471.69 
3 *43:7 *43:9 4.5 
4 *43:9 *43:10 498.87 
5 *43:10 io_oeb[13] 8.505 
*END

*D_NET *44 0.440836
*CONN
*P io_oeb[14] O
*I *419:io_oeb[6] O *D spell
*CAP
1 io_oeb[14] 0.000145669
2 *419:io_oeb[6] 0.00159215
3 *44:16 0.0987096
4 *44:15 0.0985639
5 *44:13 0.0750525
6 *44:12 0.0766446
7 *44:12 *397:16 2.66843e-05
8 *44:13 *326:19 0.000856076
9 *44:13 *388:8 0.089245
*RES
1 *419:io_oeb[6] *44:12 24.12 
2 *44:12 *44:13 691.29 
3 *44:13 *44:15 4.5 
4 *44:15 *44:16 773.91 
5 *44:16 io_oeb[14] 1.935 
*END

*D_NET *45 0.455087
*CONN
*P io_oeb[15] O
*I *419:io_oeb[7] O *D spell
*CAP
1 io_oeb[15] 0.00029378
2 *419:io_oeb[7] 0.000841341
3 *45:22 0.0999003
4 *45:21 0.0996065
5 *45:19 0.0519777
6 *45:18 0.0522307
7 *45:13 0.00400867
8 *45:12 0.00459708
9 *45:13 *419:i_wb_addr[1] 0.000822924
10 *45:13 *419:i_wb_data[15] 0.00338471
11 *45:13 *419:i_wb_data[29] 0.00212691
12 *45:13 *79:13 0.0259722
13 *45:13 *193:15 0.00133321
14 *45:13 *234:15 0.00125213
15 *45:13 *354:14 0.00539766
16 *45:13 *399:15 0.000604228
17 *45:13 *402:16 0.00428499
18 *45:13 *408:15 0.00185253
19 *45:13 *410:17 0.00222914
20 *45:19 *79:13 0
21 *45:19 *203:8 0.0922596
22 *40:12 *45:18 0.000111083
*RES
1 *419:io_oeb[7] *45:12 18.8961 
2 *45:12 *45:13 141.93 
3 *45:13 *45:18 10.89 
4 *45:18 *45:19 483.39 
5 *45:19 *45:21 4.5 
6 *45:21 *45:22 767.07 
7 *45:22 io_oeb[15] 3.015 
*END

*D_NET *75 0.201739
*CONN
*P io_oeb[8] O
*I *419:io_oeb[0] O *D spell
*CAP
1 io_oeb[8] 0.000275016
2 *419:io_oeb[0] 0.00598159
3 *75:14 0.0898279
4 *75:13 0.0944983
5 *75:9 0.0109269
6 *75:9 *350:16 0.000229357
*RES
1 *419:io_oeb[0] *75:9 44.415 
2 *75:9 *75:13 42.48 
3 *75:13 *75:14 700.83 
4 *75:14 io_oeb[8] 3.015 
*END

*D_NET *76 0.205071
*CONN
*P io_oeb[9] O
*I *419:io_oeb[1] O *D spell
*CAP
1 io_oeb[9] 0.000145669
2 *419:io_oeb[1] 0.00173511
3 *76:16 0.083201
4 *76:15 0.0830554
5 *76:13 0.0175991
6 *76:12 0.0193342
7 *76:12 *83:10 0
*RES
1 *419:io_oeb[1] *76:12 21.105 
2 *76:12 *76:13 135.27 
3 *76:13 *76:15 4.5 
4 *76:15 *76:16 650.97 
5 *76:16 io_oeb[9] 1.935 
*END

*D_NET *78 0.410724
*CONN
*P io_out[10] O
*I *419:io_out[2] O *D spell
*CAP
1 io_out[10] 0.00477719
2 *419:io_out[2] 0.00396189
3 *78:16 0.100873
4 *78:15 0.0960957
5 *78:13 0.0424012
6 *78:12 0.0463631
7 *78:12 *203:7 5.35082e-05
8 *78:13 *178:19 0.0814593
9 *78:13 *320:13 0.0347394
*RES
1 *419:io_out[2] *78:12 40.14 
2 *78:12 *78:13 472.05 
3 *78:13 *78:15 4.5 
4 *78:15 *78:16 753.48 
5 *78:16 io_out[10] 36.945 
*END

*D_NET *79 0.407928
*CONN
*P io_out[11] O
*I *419:io_out[3] O *D spell
*CAP
1 io_out[11] 0.000253458
2 *419:io_out[3] 0.000721737
3 *79:19 0.0196461
4 *79:18 0.0193927
5 *79:16 0.0705917
6 *79:15 0.0705917
7 *79:13 0.0518919
8 *79:12 0.0526136
9 *79:12 *326:13 0
10 *79:12 *359:13 9.18459e-05
11 *79:13 *179:16 0
12 *79:13 *203:8 0
13 *79:13 *362:14 0.00136937
14 *79:13 *402:16 0.000196937
15 *79:13 *410:17 4.79762e-05
16 *40:13 *79:13 0.0945463
17 *45:13 *79:13 0.0259722
18 *45:19 *79:13 0
*RES
1 *419:io_out[3] *79:12 18.5361 
2 *79:12 *79:13 582.75 
3 *79:13 *79:15 4.5 
4 *79:15 *79:16 542.97 
5 *79:16 *79:18 4.5 
6 *79:18 *79:19 151.47 
7 *79:19 io_out[11] 2.835 
*END

*D_NET *80 0.53515
*CONN
*P io_out[12] O
*I *419:io_out[4] O *D spell
*CAP
1 io_out[12] 0.00135943
2 *419:io_out[4] 0.00032228
3 *80:23 0.0424158
4 *80:22 0.0410563
5 *80:20 0.0520537
6 *80:18 0.0528132
7 *80:13 0.00346953
8 *80:12 0.0030323
9 *80:12 *397:16 6.67108e-06
10 *80:13 *359:19 0.0455344
11 *80:13 *364:91 0.0134197
12 *80:18 *419:i_wb_data[18] 0.000437881
13 *80:18 *313:16 0
14 *80:18 *318:14 0
15 *80:18 *350:16 0.00183733
16 *80:20 *180:7 0.00129485
17 *80:20 *188:16 0.00514421
18 *80:20 *196:10 0
19 *80:20 *200:7 8.22449e-05
20 *80:20 *200:9 0
21 *80:20 *308:16 0.184394
22 *80:20 *318:14 0
23 *80:20 *350:16 0.0864758
*RES
1 *419:io_out[4] *80:12 15.48 
2 *80:12 *80:13 116.37 
3 *80:13 *80:18 15.75 
4 *80:18 *80:20 746.64 
5 *80:20 *80:22 4.5 
6 *80:22 *80:23 315.45 
7 *80:23 io_out[12] 12.825 
*END

*D_NET *81 0.254021
*CONN
*P io_out[13] O
*I *419:io_out[5] O *D spell
*CAP
1 io_out[13] 0.000345078
2 *419:io_out[5] 0.000867293
3 *81:16 0.0771113
4 *81:15 0.0767662
5 *81:13 0.0484237
6 *81:12 0.049291
7 *81:12 *320:30 0.000604228
8 *81:12 *359:22 0.000611937
*RES
1 *419:io_out[5] *81:12 16.065 
2 *81:12 *81:13 372.51 
3 *81:13 *81:15 4.5 
4 *81:15 *81:16 602.37 
5 *81:16 io_out[13] 3.375 
*END

*D_NET *82 0.385388
*CONN
*P io_out[14] O
*I *419:io_out[6] O *D spell
*CAP
1 io_out[14] 0.000406292
2 *419:io_out[6] 0.00586089
3 *82:17 0.0115758
4 *82:16 0.0111695
5 *82:14 0.080446
6 *82:13 0.080446
7 *82:11 0.0208715
8 *82:9 0.0267324
9 *82:9 *350:16 0.000229357
10 *7:11 *82:17 0.107215
11 *41:13 *82:17 0.0404352
*RES
1 *419:io_out[6] *82:9 43.875 
2 *82:9 *82:11 128.34 
3 *82:11 *82:13 4.5 
4 *82:13 *82:14 630.09 
5 *82:14 *82:16 4.5 
6 *82:16 *82:17 272.79 
7 *82:17 io_out[14] 7.785 
*END

*D_NET *83 0.322148
*CONN
*P io_out[15] O
*I *419:io_out[7] O *D spell
*CAP
1 io_out[15] 0.00107486
2 *419:io_out[7] 0.00175862
3 *83:16 0.0545653
4 *83:15 0.0534905
5 *83:13 0.059211
6 *83:12 0.059211
7 *83:10 0.0314277
8 *83:9 0.0331863
9 *5:11 *83:10 0.0282227
10 *76:12 *83:10 0
*RES
1 *419:io_out[7] *83:9 16.335 
2 *83:9 *83:10 279.45 
3 *83:10 *83:12 4.5 
4 *83:12 *83:13 456.21 
5 *83:13 *83:15 4.5 
6 *83:15 *83:16 419.67 
7 *83:16 io_out[15] 12.825 
*END

*D_NET *113 0.219689
*CONN
*P io_out[8] O
*I *419:io_out[0] O *D spell
*CAP
1 io_out[8] 0.000345078
2 *419:io_out[0] 0.000679974
3 *113:16 0.0984445
4 *113:15 0.0980994
5 *113:13 0.0107166
6 *113:12 0.0113966
7 *113:12 *397:16 6.67108e-06
*RES
1 *419:io_out[0] *113:12 18.18 
2 *113:12 *113:13 80.37 
3 *113:13 *113:15 4.5 
4 *113:15 *113:16 768.51 
5 *113:16 io_out[8] 3.375 
*END

*D_NET *114 0.160589
*CONN
*P io_out[9] O
*I *419:io_out[1] O *D spell
*CAP
1 io_out[9] 0.000188785
2 *419:io_out[1] 0.000264082
3 *114:13 0.0265164
4 *114:12 0.0263276
5 *114:10 0.0186916
6 *114:9 0.0186916
7 *114:7 0.0346735
8 *114:5 0.0349375
9 *114:5 *212:13 0.000298343
*RES
1 *419:io_out[1] *114:5 2.205 
2 *114:5 *114:7 270.27 
3 *114:7 *114:9 4.5 
4 *114:9 *114:10 143.19 
5 *114:10 *114:12 4.5 
6 *114:12 *114:13 205.47 
7 *114:13 io_out[9] 2.295 
*END

*D_NET *116 0.10674
*CONN
*P la_data_in[10] I
*I *419:i_la_addr[2] I *D spell
*CAP
1 la_data_in[10] 0.00034474
2 *419:i_la_addr[2] 0.000222257
3 *116:19 0.0193213
4 *116:18 0.019099
5 *116:16 0.0268934
6 *116:15 0.0268934
7 *116:13 0.00681042
8 *116:11 0.00715516
9 *116:16 *364:42 0
10 *116:19 *397:47 0
*RES
1 la_data_in[10] *116:11 3.015 
2 *116:11 *116:13 49.41 
3 *116:13 *116:15 4.5 
4 *116:15 *116:16 205.29 
5 *116:16 *116:18 4.5 
6 *116:18 *116:19 142.83 
7 *116:19 *419:i_la_addr[2] 10.8235 
*END

*D_NET *117 0.264311
*CONN
*P la_data_in[11] I
*I *419:i_la_addr[3] I *D spell
*CAP
1 la_data_in[11] 0.00289878
2 *419:i_la_addr[3] 0.00522061
3 *117:19 0.01686
4 *117:18 0.0116394
5 *117:16 0.0269611
6 *117:15 0.0298599
7 *419:i_la_addr[3] *397:16 6.55592e-05
8 *117:16 *181:13 0.0612116
9 *117:19 wbs_dat_o[12] 0.00066494
10 *117:19 *185:13 0.0863744
11 *117:19 *330:19 0.0225545
*RES
1 la_data_in[11] *117:15 25.605 
2 *117:15 *117:16 278.55 
3 *117:16 *117:18 4.5 
4 *117:18 *117:19 228.33 
5 *117:19 *419:i_la_addr[3] 44.28 
*END

*D_NET *118 0.200651
*CONN
*P la_data_in[12] I
*I *419:i_la_addr[4] I *D spell
*CAP
1 la_data_in[12] 0.00343137
2 *419:i_la_addr[4] 0.000439256
3 *118:19 0.01218
4 *118:18 0.0117407
5 *118:16 0.0133134
6 *118:15 0.0167448
7 *118:15 *177:11 0
8 *118:15 *182:23 1.6276e-05
9 *118:16 *349:16 0.077186
10 *118:19 *395:16 0.0655996
*RES
1 la_data_in[12] *118:15 29.565 
2 *118:15 *118:16 194.31 
3 *118:16 *118:18 4.5 
4 *118:18 *118:19 169.65 
5 *118:19 *419:i_la_addr[4] 12.5765 
*END

*D_NET *119 0.169833
*CONN
*P la_data_in[13] I
*I *419:i_la_addr[5] I *D spell
*CAP
1 la_data_in[13] 0.00440048
2 *419:i_la_addr[5] 0.00123852
3 *119:15 0.00851564
4 *119:14 0.00925625
5 *119:9 0.019416
6 *119:7 0.0218374
7 *119:9 *212:31 0.00376528
8 *119:9 *392:12 0.0105962
9 *119:14 *404:15 0.0108239
10 *119:15 *316:21 0.000407775
11 *119:15 *367:19 0.0610926
12 *119:15 *417:19 0.0184835
*RES
1 la_data_in[13] *119:7 32.085 
2 *119:7 *119:9 150.3 
3 *119:9 *119:14 36.45 
4 *119:14 *119:15 156.15 
5 *119:15 *419:i_la_addr[5] 13.095 
*END

*D_NET *120 0.365525
*CONN
*P la_data_in[14] I
*I *419:i_la_addr[6] I *D spell
*CAP
1 la_data_in[14] 0.00236248
2 *419:i_la_addr[6] 0.000541729
3 *120:14 0.00234483
4 *120:13 0.0018031
5 *120:11 0.031976
6 *120:10 0.0343385
7 *120:10 *126:8 0.00800859
8 *120:10 *374:8 0
9 *120:11 la_data_out[16] 5.46909e-05
10 *120:11 *365:11 0.185886
11 *120:14 *127:14 0.000643599
12 *120:14 *128:16 0.00124254
13 *120:14 *130:14 0.0137983
14 *120:14 *195:10 0.00550998
15 *120:14 *212:10 0.0633647
16 *120:14 *318:14 0.0136493
*RES
1 la_data_in[14] *120:10 36.135 
2 *120:10 *120:11 476.55 
3 *120:11 *120:13 4.5 
4 *120:13 *120:14 169.11 
5 *120:14 *419:i_la_addr[6] 8.055 
*END

*D_NET *122 0.328401
*CONN
*P la_data_in[16] I
*I *419:i_la_data[0] I *D spell
*CAP
1 la_data_in[16] 0.000120671
2 *419:i_la_data[0] 0.00390024
3 *122:19 0.0137095
4 *122:18 0.00980921
5 *122:16 0.027219
6 *122:15 0.027219
7 *122:13 0.0147257
8 *122:11 0.0148464
9 *419:i_la_data[0] *397:16 2.66843e-05
10 *122:13 *367:19 0.0383056
11 *122:16 *384:15 0.120857
12 *122:19 *178:19 0.0576617
*RES
1 la_data_in[16] *122:11 1.395 
2 *122:11 *122:13 160.29 
3 *122:13 *122:15 4.5 
4 *122:15 *122:16 321.93 
5 *122:16 *122:18 4.5 
6 *122:18 *122:19 147.15 
7 *122:19 *419:i_la_data[0] 40.68 
*END

*D_NET *123 0.0786127
*CONN
*P la_data_in[17] I
*I *419:i_la_data[1] I *D spell
*CAP
1 la_data_in[17] 0.000831188
2 *419:i_la_data[1] 0.00254143
3 *123:11 0.034703
4 *123:10 0.0329928
5 *123:10 *180:11 0.00121201
6 *123:10 *187:21 0.000175845
7 *123:10 *418:8 0.00121853
8 *123:11 *241:10 0
9 *123:11 *369:19 0.00432332
10 *123:11 *394:12 0
11 *123:11 *395:10 0.000614565
*RES
1 la_data_in[17] *123:10 18.675 
2 *123:10 *123:11 260.55 
3 *123:11 *419:i_la_data[1] 19.395 
*END

*D_NET *124 0.111164
*CONN
*P la_data_in[18] I
*I *419:i_la_data[2] I *D spell
*CAP
1 la_data_in[18] 0.00137538
2 *419:i_la_data[2] 0.000465965
3 *124:15 0.0192217
4 *124:14 0.0187557
5 *124:12 0.00652198
6 *124:11 0.00934147
7 *124:7 0.00419487
8 *124:7 la_data_out[19] 0
9 *124:7 *126:13 0.00239632
10 *124:11 la_data_out[19] 0
11 *124:11 *126:13 0.00332515
12 *124:11 *126:15 0.00802349
13 *124:11 *129:11 0
14 *124:12 *193:19 0.0375417
15 *124:15 *212:48 0
*RES
1 la_data_in[18] *124:7 13.185 
2 *124:7 *124:11 43.92 
3 *124:11 *124:12 94.59 
4 *124:12 *124:14 4.5 
5 *124:14 *124:15 139.95 
6 *124:15 *419:i_la_data[2] 12.7957 
*END

*D_NET *125 0.454528
*CONN
*P la_data_in[19] I
*I *419:i_la_data[3] I *D spell
*CAP
1 la_data_in[19] 0.000166634